 1000.00      300.00      14.00
   250.00     300.45      14.00      -7.88      -3.58
   750.00     301.25      14.00      -6.94      -0.89
  1250.00     302.47      13.50      -5.17       1.33
  1750.00     303.93      11.10      -2.76       2.84
  2250.00     305.31       9.06       0.01       3.47
  2750.00     306.81       7.36       2.87       3.49
  3250.00     308.46       5.95       5.73       3.49
  3750.00     310.03       4.78       8.58       3.49
  4250.00     311.74       3.82      11.44       3.49
  4750.00     313.48       3.01      14.30       3.49
  5250.00     315.24       2.36      17.15       3.49
  5750.00     317.18       1.80      20.01       3.49
  6250.00     319.02       1.41      22.87       3.49
  6750.00     320.88       1.07      25.73       3.49
  7250.00     322.80       0.80      27.15       3.49
  7750.00     324.87       0.60      27.15       3.49
  8250.00     326.86       0.43      27.15       3.49
  8750.00     328.89       0.32      27.15       3.49
  9250.00     330.39       0.24      27.15       3.49
  9750.00     332.80       0.17      27.15       3.49
 10250.00     335.23       0.10      27.15       3.49
 10750.00     337.31       0.08      27.15       3.49
 11250.00     339.55       0.05      27.15       3.49
 11750.00     342.82       0.03      27.15       3.49
 12250.00     349.88       0.04      27.15       3.49
 12750.00     357.34       0.04      27.15       3.49
 13250.00     364.91       0.04      27.15       3.49
 13750.00     373.22       0.04      27.15       3.49
 14250.00     381.67       0.04      27.15       3.49
 14750.00     390.29       0.04      27.15       3.49
 15250.00     398.91       0.04      27.15       3.49
 15750.00     407.53       0.04      27.15       3.49
 16250.00     416.15       0.04      27.15       3.49
 16750.00     424.77       0.04      27.15       3.49
 17250.00     433.39       0.04      27.15       3.49
 17750.00     442.01       0.04      27.15       3.49
 18250.00     450.63       0.04      27.15       3.49
 18750.00     459.25       0.04      27.15       3.49
 19250.00     467.87       0.04      27.15       3.49
 19750.00     476.49       0.04      27.15       3.49
 20250.00     485.11       0.04      27.15       3.49
 20750.00     493.73       0.04      27.15       3.49
 21250.00     502.35       0.04      27.15       3.49
 21750.00     510.97       0.04      27.15       3.49
 22250.00     519.59       0.04      27.15       3.49
 22750.00     528.21       0.04      27.15       3.49

