 &time_control
 run_days                            = 0,
 run_hours                           = 1,
 run_minutes                         = 0,
 run_seconds                         = 0, 
 start_year                          = 0001, 0001, 0001,
 start_month                         = 01,   01,   01,
 start_day                           = 01,   01,   01,
 start_hour                          = 00,   00,   00,
 start_minute                        = 00,   00,   00,
 start_second                        = 00,   00,   00,
 end_year                            = 0001, 0001, 0001,
 end_month                           = 01,   01,   01,
 end_day                             = 01,   01,   01,
 end_hour                            = 00,   00,   00,
 end_minute                          = 120,  120,  120,
 end_second                          = 00,   00,   00,
 history_interval                    = 10,   10,   10,
 frames_per_outfile                  = 1000, 1000, 1000,
 restart                             = .false.,
 restart_interval                    = 120,
 io_form_history                     = 2
 io_form_restart                     = 2
 io_form_input                       = 2
 io_form_boundary                    = 2
 /

 &domains
 time_step                           = 12,
 time_step_fract_num                 = 0,
 time_step_fract_den                 = 1,
 max_dom                             = 2,
 s_we                                = 1,     1,     1,
 s_sn                                = 1,     1,     1,
 s_vert                              = 1,     1,     1,
 e_vert                              = 41,    41,    41,
 ztop                                = 20000, 20000, 20000,
 grid_id                             = 1,     2,     3,
 parent_id                           = 0,     1,     2,
 i_parent_start                      = 0,     16,    15,
 j_parent_start                      = 0,     16,    15,
 feedback                            = 1,
 smooth_option                       = 0

 e_we                                = 61,    151,
 e_sn                                = 61,    151,
 dx                                  = 2000,  400       
 dy                                  = 2000,  400      
 parent_grid_ratio                   = 1,     5,
 parent_time_step_ratio              = 1,     5,
 /

 &physics
 mp_physics                          = 1,     1,     1,
 ra_lw_physics                       = 0,     0,     0,
 ra_sw_physics                       = 0,     0,     0,
 radt                                = 30,    30,    30,
 sf_sfclay_physics                   = 0,     0,     0,
 sf_surface_physics                  = 0,     0,     0,
 bl_pbl_physics                      = 0,     0,     0,
 bldt                                = 0,     0,     0,
 cu_physics                          = 0,     0,     0,
 cudt                                = 5,     5,     5,
 /

 &fdda
 /

 &dynamics
 hybrid_opt                          = 0, 
 rk_ord                              = 3,
 diff_opt                            = 2,      2,      2,
 km_opt                              = 2,      2,      2,
 damp_opt                            = 2,
 zdamp                               = 5000.,  5000.,  5000.,
 dampcoef                            = 0.003,  0.003,  0.003
 khdif                               = 500,    500,    500,
 kvdif                               = 500,    500,    500,
 smdiv                               = 0.1,    0.1,    0.1,
 emdiv                               = 0.01,   0.01,   0.01,
 epssm                               = 0.1,    0.1,    0.1
 time_step_sound                     = 6,      6,      6,
 h_mom_adv_order                     = 5,      5,      5,
 v_mom_adv_order                     = 3,      3,      3,
 h_sca_adv_order                     = 5,      5,      5,
 v_sca_adv_order                     = 3,      3,      3,
 moist_adv_opt                       = 1,      1,      1,     
 scalar_adv_opt                      = 1,      1,      1,     
 chem_adv_opt                        = 1,      1,      1,     
 tke_adv_opt                         = 1,      1,      1,     
 non_hydrostatic                     = .true., .true., .true.,
 mix_full_fields                     = .true., .true., .true.,
 /

 &bdy_control
 periodic_x                          = .false.,
 symmetric_xs                        = .false.,
 symmetric_xe                        = .false.,
 open_xs                             = .true., 
 open_xe                             = .true., 
 periodic_y                          = .false.,
 symmetric_ys                        = .false.,
 symmetric_ye                        = .false.,
 open_ys                             = .true., 
 open_ye                             = .true., 
 /

 &grib2
 /

 &namelist_quilt
 nio_tasks_per_group = 0,
 nio_groups = 1,
 /

 &ideal
 ideal_case = 2
 /

