 1017.10     288.00     8.93
   10.0       288.00      9.0       3.0      0.0
   100.0      288.70      8.84      3.0      0.0
   200.0      289.40      8.68      3.0      0.0
   300.0      290.10      8.52      3.0      0.0
   400.0      290.80      8.36      3.0      0.0
   500.0      291.50      8.20      3.0      0.0
   600.0      292.20      8.04      3.0      0.0
   700.0      292.90      7.88      3.0      0.0
   800.0      293.60      7.72      3.0      0.0
   900.0      294.30      7.56      3.0      0.0
   1000.0     295.00      7.40      3.0      0.0
   1100.0     295.75      7.21      3.0      0.0
   1200.0     296.50      7.02      3.0      0.0
   1300.0     297.25      6.83      3.0      0.0
   1400.0     298.00      6.64      3.0      0.0
   1500.0     298.75      6.45      3.0      0.0
   1600.0     299.50      6.26      3.0      0.0
   1700.0     300.25      6.07      3.0      0.0
   1800.0     301.00      5.88      3.0      0.0
   1900.0     301.75      5.69      3.0      0.0
   2000.0     302.50      5.5       3.0      0.0
   3000.0     308.79      4.00      3.0      0.0
   3500.0     310.99      3.20      3.0      0.0
   4000.0     312.38      2.42      3.0      0.0
   4500.0     314.16      1.02      3.0      0.0
   5000.0     316.69      1.03      3.0      0.0
   5500.0     318.74      0.85      3.0      0.0
   6000.0     321.36      0.59      3.0      0.0
   6500.0     322.78      0.39      3.0      0.0
   7000.0     325.29      0.12      3.0      0.0
   7500.0     326.98      0.15      3.0      0.0
   8000.0     329.10      0.15      3.0      0.0
   8500.0     330.02      0.17      3.0      0.0
   9000.0     331.37      0.11      3.0      0.0
  10000.0     331.37      0.05      3.0      0.0
  16000.0     331.37      0.001     3.0      0.0      
