 &time_control
 run_days                            = 0,
 run_hours                           = 0,
 run_minutes                         = 0,
 run_seconds                         = 0,
 start_year                          = 2019, 2019, 2019,
 start_month                         = 12,   12,   12,
 start_day                           = 01,   01,   01,
 start_hour                          = 00,   00,   00,
 end_year                            = 2019, 2019, 2019,
 end_month                           = 12,   12,   12,
 end_day                             = 01,   01,   01,
 end_hour                            = 23,   23,   23,
 interval_seconds                    = 3600
 input_from_file                     = .true.,.true.,.true.,
 fine_input_stream                   = 0,2,2,
 history_interval                    = 15,  30,   30,
! history_outname                     = '/data/wrf_run/2019_12_01-2019_12_02-orgin_WRF/wrfout_d<domain>_<date>',
 frames_per_outfile                  = 24, 24, 24,
 restart                             = .false.,
 restart_interval                    = 720,
 io_form_history                     = 2,
 io_form_restart                     = 2,
 io_form_input                       = 2,
 io_form_boundary                    = 2,
 io_form_auxinput2                   = 2,
 debug_level                         = 0
 /

 &domains
 time_step                           = 10,
 time_step_fract_num                 = 0,
 time_step_fract_den                 = 1,
 max_dom                             = 1,
 e_we                                = 161,    163,   163,
 e_sn                                = 101,    103,   103,
 e_vert                              = 40,    40,    40,
 p_top_requested                     = 2000,
 num_metgrid_levels                  = 38,
 num_metgrid_soil_levels             = 4,
 dx                                  = 9000, 3000,  1000,
 dy                                  = 9000, 3000,  1000,
 grid_id                             = 1,     2,     3,
 parent_id                           = 1,     1,     2,
 i_parent_start                      = 1,     50,    58,
 j_parent_start                      = 1,     33,    34,
 parent_grid_ratio                   = 1,     3,     3,
 parent_time_step_ratio              = 1,     3,     3,
 feedback                            = 1,
 smooth_option                       = 0
 /

 &physics
 mp_physics                          = 4,    4,    4,
 cu_physics                          = 1,    1,    1,
 ra_lw_physics                       = 1,    1,    1,
 ra_sw_physics                       = 1,    1,    1,
 bl_pbl_physics                      = 5,    5,    5,
 sf_sfclay_physics                   = 5,    5,    5,
 sf_surface_physics                  = 18,   18,   18,
 radt                                = 9,    9,    9,
 bldt                                = 0,     0,     0,
 cudt                                = 5,     5,     5,
 ifsnow                              = 1,
 icloud                              = 1,
 num_land_cat                        = 21,
 sf_urban_physics                    = 0,     0,     0,
 mp_zero_out                         = 0,
 mp_zero_out_thresh                  = 1.e-10,
 blowing_snow                        = .false.,.true.,.true.
 blowing_snow_sublimation            = .true.,.true.,.true.
 bs_rad_effect                       = .false.,.false.,.false.
 sn_start_from_file                  = .true.,.false.,.false.
 num_bs_sfc_layers                   = 8,
 no_snpack_lay_to_sav                = 500,
 snpack_dt                           = 900,0.1666666667,1.5
 snpack_write_dt                     = 3600,1440,1440
 /

 &fdda
 /

 &dynamics
 hybrid_opt                          = 2, 
 w_damping                           = 0,
 diff_opt                            = 1,      1,      1,
 km_opt                              = 4,      4,      4,
 diff_6th_opt                        = 0,      0,      0,
 diff_6th_factor                     = 0.12,   0.12,   0.12,
 base_temp                           = 290.
 damp_opt                            = 3,
 zdamp                               = 5000.,  5000.,  5000.,
 dampcoef                            = 0.2,    0.2,    0.2
 khdif                               = 0,      0,      0,
 kvdif                               = 0,      0,      0,
 non_hydrostatic                     = .true., .true., .true.,
 moist_adv_opt                       = 1,      1,      1,     
 scalar_adv_opt                      = 1,      1,      1,     
 gwd_opt                             = 1,
 /

 &bdy_control
 spec_bdy_width                      = 5,
 specified                           = .true.,
 nested                              = .true., .true., .true.,
 /

 &grib2
 /

 &namelist_quilt
 nio_tasks_per_group = 0,
 nio_groups = 1,
 /
