 &time_control
 run_days                            = 0,
 run_hours                           = 0,
 run_minutes                         = 480,
 run_seconds                         = 0,
 start_year                          = 0001, 0001, 0001,
 start_month                         = 01,   01,   01,
 start_day                           = 01,   01,   01,
 start_hour                          = 00,   00,   00,
 start_minute                        = 00,   00,   00,
 start_second                        = 00,   00,   00,
 end_year                            = 0001, 0001, 0001,
 end_month                           = 01,   01,   01,
 end_day                             = 01,   01,   01,
 end_hour                            = 00,   00,   00,
 end_minute                          = 360,   120,   120,
 end_second                          = 00,   00,   00,
 history_interval_s                  = 60, 10,  10,
 frames_per_outfile                  = 1000,     1000,    1000,
 restart                             = .false.,
 io_form_history                     = 2
 io_form_restart                     = 2
 io_form_input                       = 2
 io_form_boundary                    = 2
 /

 &domains
 time_step                           = 12,
 time_step_fract_num                 = 0,
 time_step_fract_den                 = 4,
 max_dom                             = 1,
 s_we                                = 1,     1,     1,
 e_we                                = 42,    43,    43,
 s_sn                                = 1,     1,     1,
 e_sn                                = 42,    43,    43,
 s_vert                              = 1,     1,     1,
 e_vert                              = 41,    41,    41,
 dx                                  = 2000, 666.6666667, 222.2222222  
 dy                                  = 2000, 666.6666667, 222.2222222
 ztop                                = 20000, 20000, 20000,
 grid_id                             = 1,     2,     3,
 parent_id                           = 0,     1,     2,
 i_parent_start                      = 0,     15,    15,
 j_parent_start                      = 0,     15,    15,
 parent_grid_ratio                   = 1,     3,     3,
 parent_time_step_ratio              = 1,     3,     3,
 feedback                            = 1,
 smooth_option                       = 0
 sr_x                                = 10,
 sr_y                                = 10,
/

 &physics
 mp_physics                          = 1,     1,     1,
 ra_lw_physics                       = 0,     0,     0,
 ra_sw_physics                       = 0,     0,     0,
 radt                                = 30,    30,    30,
 sf_sfclay_physics                   = 1,     0,     0,    !a surface model is needed when the fuel moisture model is on
 sf_surface_physics                  = 1,     0,     0,    !only sf_sfclay_physics=1, sf_surface_physics=1 supported in ideal.exe 
 bl_pbl_physics                      = 0,     0,     0,
 bldt                                = 0,     0,     0,
 cu_physics                          = 0,     0,     0,
 cudt                                = 5,     5,     5,
 isfflx                              = 1,
 ifsnow                              = 0,
 icloud                              = 1,
 num_soil_layers                     = 5,
 mp_zero_out                         = 0,
 prec_acc_dt                         = 60, 
 num_land_cat                        = 10,
/

 &fdda
 /

 &dynamics
 hybrid_opt                          = 0, 
 rk_ord                              = 3,
 diff_opt                            = 2,      2,      2,
 km_opt                              = 2,      2,      2,
 damp_opt                            = 2,
 zdamp                               = 5000.,  5000.,  5000.,
 dampcoef                            = 0.003,    0.003,    0.003
 khdif                               = 500,   500,   500,
 kvdif                               = 500,   500,   500,
 smdiv                               = 0.1,    0.1,    0.1,
 emdiv                               = 0.01,   0.01,   0.01,
 epssm                               = 0.1,    0.1,    0.1
 h_mom_adv_order                     = 5,      5,      5,
 v_mom_adv_order                     = 3,      3,      3,
 h_sca_adv_order                     = 5,      5,      5,
 v_sca_adv_order                     = 3,      3,      3,
 time_step_sound                     = 6,      6,      6,
 moist_adv_opt                       = 1,      1,      1,
 scalar_adv_opt                      = 1,      1,      1,
 chem_adv_opt                        = 1,      1,      1,
 tke_adv_opt                         = 1,      1,      1,
 tracer_opt                          = 3,      3,      3,
 non_hydrostatic                     = .true., .true., .true.,
 mix_full_fields                     = .true., .true., .true., 
/

 &bdy_control
 periodic_x                          = .false.,.false.,.false.,
 symmetric_xs                        = .false.,.false.,.false.,
 symmetric_xe                        = .false.,.false.,.false.,
 open_xs                             = .true., .false.,.false.,
 open_xe                             = .true., .false.,.false.,
 periodic_y                          = .false.,.false.,.false.,
 symmetric_ys                        = .false.,.false.,.false.,
 symmetric_ye                        = .false.,.false.,.false.,
 open_ys                             = .true., .false.,.false.,
 open_ye                             = .true., .false.,.false.,
 nested                              = .false., .true., .true.,
 /

 &grib2
 /

 &namelist_quilt
 nio_tasks_per_group = 0,
 nio_groups = 1,
 /

 &fire ! be sure to set sr_x,sr_y in domains-namelist (to set refinement in x,y)
 ifire              = 2,             ! integer, = 0: no fire, 2=turn on fire model
 fire_fuel_read     = 0,             ! integer, -1: from WPS, 0= use fire_fuel_cat, 1= by altitude
 fire_fuel_cat      = 3,             ! integer, if specified which fuel category?
! ignition 
 fire_num_ignitions = 1,             ! integer, only the first fire_num_ignition used, up to 5 allowed
 fire_ignition_ros1 =   0.1,         ! rate of spread during ignition, m/s  
 fire_ignition_start_x1 = 60000,     ! start points of ignition lines, in m from lower left corner
 fire_ignition_start_y1 = 52000,     ! start points of ignition lines, in m from lower left corner
 fire_ignition_end_x1 =   61000,     ! end points of ignition lines, in m from lower left corner
 fire_ignition_end_y1 =   51000,     ! end points of ignition lines, in m from lower left corner
 fire_ignition_radius1 =    400,     ! all within this radius will ignite, > fire mesh step
 fire_ignition_start_time1 = 2,      ! sec for ignition from the start
 fire_ignition_end_time1  =502,      ! sec for ignition from the start
 fire_ignition_ros2 =   0.01,        ! rate of spread during ignition, m/s  
 fire_ignition_start_x2 = 1503,      ! start points of ignition lines, in m from lower left corner
 fire_ignition_start_y2 =  500,      ! start points of ignition lines, in m from lower left corner
 fire_ignition_end_x2 =   1503,      ! end points of ignition lines, in m from lower left corner
 fire_ignition_end_y2 =   1900,      ! end points of ignition lines, in m from lower left corner
 fire_ignition_radius2 =    18,      ! all within this radius will ignite, > fire mesh step
 fire_ignition_start_time2 = 3,      ! sec for ignition from the start      ! end ignition for sfire
 fire_ignition_end_time2  =503,      ! sec for ignition from the start! end ignition for sfire
 fire_wind_height = 1.,              ! height to interpolate winds to for calculating fire spread rate 
!
! verbosity
 fire_print_msg     = 2,        ! 1 print fire debugging messages
 fire_print_file    = 0,        ! 1 write files for matlab
!
! moisture model
 fmoist_run = .true.,        ! yes do run the moisture model - set also sf_sfclay_physics and sf_surface_physics in &physics
 fmoist_interp = .true.,     ! yes do interpolate moisture to fuels
 fmoist_only = .false.       ! skip the fire model and run moisture only
 fmoist_freq = 0,            ! frequency of run or 0 to run using the specified fmost_dt
 fmoist_dt = 10,             ! moisture model time step (s)
 fire_fmc_read = 0,
!
! experiments
!
 fire_const_time = -1.,         ! (s) if >0, time from start to stop fire evolution and keep heat output constant
 fire_const_grnhfx = -1,        ! (W/s) if both >=0, use this flux (meant to be used when fire_const_time=ignition time) 
 fire_const_grnqfx = -1,        ! (W/s) if both >=0, use this flux (meant to be used when fire_const_time=ignition time) 
 fire_test_steps=0,             ! >0 = on first call, do specified number of steps and terminate (testing only)
!
! the following flags are  for ideal.exe only
!
 fire_mountain_type=1,          ! in ideal: 0=none, 1= hill, 2=EW ridge, 3=NS ridge
 fire_mountain_height=100.,     ! (m) ideal mountain height
 fire_mountain_start_x=900.,    ! (m) coord of start of the mountain from lower left corner (just like ignition)
 fire_mountain_start_y=1000.,   ! (m) coord of start of the mountain from lower left corner (just like ignition)
 fire_mountain_end_x=1400.,     ! (m) coord of end of the mountain from lower left corner (just like ignition)
 fire_mountain_end_y=1600.,     ! (m) coord of end of the mountain from lower left corner (just like ignition)
 fire_topo_from_atm=0,          ! 0 = fire mesh topo set from fine-res data, 1 = populate by interpolating from atmosphere
 sfc_full_init =.true.          ! .true.= turn on surface initialization (needed for the surface layer scheme to work), .false.=no surface initialization  
 sfc_tsk = 300.0                ! Initial surface temperature [K] to be used with sf_surface_phys = 1
 sfc_tmn = 330.0                ! Initial soil temperature at lower boundary [K] to be used with sf_surface_phys = 1
 sfc_lu_index  = 7              ! land use index needed by the surface model
 delt_perturbation = 3.0,       ! Temperature perturbation for creating a cold (negative) / warm (positive) bubble [K], 0 turns it off, needed to initialize rain
 xrad_perturbation = 10000.0,   ! Horizontal radius of the bubble in E-W direction [m]
 yrad_perturbation = 10000.0,   ! Horizontal radius of the bubble in N-S direction [m]
 zrad_perturbation = 1500.0,    ! Vertical radius of the bubble [m]
 hght_perturbation = 1500.0,    ! Perturbation height - height at which the warm/cold bubble will be suspended [m]
!
! method switches for developers only, do not change!
!
 fire_fuel_left_irl=2,          ! refinement to integrate fuel_left, must be even
 fire_fuel_left_jrl=2,          ! refinement to integrate fuel_left, must be even
 fire_atm_feedback=1.0,         ! real, multiplier for heat fluxes, 1.=normal, 0.=turn off two-way coupling 
 fire_grows_only=1,             ! if >0 level set function cannot increase = fire can only grow
 fire_viscosity=0.4,            ! artificial viscosity in level set method (max 1, needed with fire_upwinding=0)
 fire_upwinding=9,              ! 0=none, 1=standard, 2=godunov, 3=eno, 4=sethian
 fire_fuel_left_method=1,       ! for now, use 1 only
 fire_lfn_ext_up=1.0,           ! 0.=extend level set function at boundary by reflection, 1.=always up
/
