   1000.0         300.5000       14.00000    
   125.0000       300.5000       14.00000      -11.40000      0.0000000E+00
   375.0000       300.5650       14.00000      -10.20000      0.0000000E+00
   625.0000       301.0699       14.00000      -9.000000      0.0000000E+00
   875.0000       301.6293       14.00000      -7.800000      0.0000000E+00
   1125.000       302.2307       14.00000      -6.600000      0.0000000E+00
   1375.000       302.8666       13.11911      -5.400000      0.0000000E+00
   1625.000       303.5323       11.87561      -4.200000      0.0000000E+00
   1875.000       304.2242       10.74200      -3.000000      0.0000000E+00
   2125.000       304.9395       9.707900      -1.800000      0.0000000E+00
   2375.000       305.6764       8.764307     -0.6000004      0.0000000E+00
   2625.000       306.4329       7.903318      0.0000000E+00  0.0000000E+00
   2875.000       307.2076       7.117891      0.0000000E+00  0.0000000E+00
   3125.000       307.9994       6.401778      0.0000000E+00  0.0000000E+00
   3375.000       308.8071       5.749294      0.0000000E+00  0.0000000E+00
   3625.000       309.6300       5.155267      0.0000000E+00  0.0000000E+00
   3875.000       310.4672       4.614990      0.0000000E+00  0.0000000E+00
   4125.000       311.3181       4.124146      0.0000000E+00  0.0000000E+00
   4375.000       312.1819       3.678759      0.0000000E+00  0.0000000E+00
   4625.000       313.0581       3.275154      0.0000000E+00  0.0000000E+00
   4875.000       313.9464       2.909960      0.0000000E+00  0.0000000E+00
   5125.000       314.8460       2.580028      0.0000000E+00  0.0000000E+00
   5375.000       315.7567       2.282451      0.0000000E+00  0.0000000E+00
   5625.000       316.6780       2.014546      0.0000000E+00  0.0000000E+00
   5875.000       317.6097       1.773806      0.0000000E+00  0.0000000E+00
   6125.000       318.5513       1.557917      0.0000000E+00  0.0000000E+00
   6375.000       319.5026       1.364712      0.0000000E+00  0.0000000E+00
   6625.000       320.4632       1.192196      0.0000000E+00  0.0000000E+00
   6875.000       321.4330       1.038515      0.0000000E+00  0.0000000E+00
   7125.000       322.4116      0.9019489      0.0000000E+00  0.0000000E+00
   7375.000       323.3988      0.7808990      0.0000000E+00  0.0000000E+00
   7625.000       324.3945      0.6738972      0.0000000E+00  0.0000000E+00
   7875.000       325.3983      0.5795774      0.0000000E+00  0.0000000E+00
   8125.000       326.4102      0.4966844      0.0000000E+00  0.0000000E+00
   8375.000       327.4298      0.4240607      0.0000000E+00  0.0000000E+00
   8625.000       328.4571      0.3606393      0.0000000E+00  0.0000000E+00
   8875.000       329.4919      0.3054438      0.0000000E+00  0.0000000E+00
   9125.000       330.5339      0.2575793      0.0000000E+00  0.0000000E+00
   9375.000       331.5832      0.2162281      0.0000000E+00  0.0000000E+00
   9625.000       332.6394      0.1806441      0.0000000E+00  0.0000000E+00
   9875.000       333.7025      0.1501510      0.0000000E+00  0.0000000E+00
   10125.00       334.7725      0.1241341      0.0000000E+00  0.0000000E+00
   10375.00       335.8490      0.1020380      0.0000000E+00  0.0000000E+00
   10625.00       336.9320      8.3363235E-02  0.0000000E+00  0.0000000E+00
   10875.00       338.0214      6.7661338E-02  0.0000000E+00  0.0000000E+00
   11125.00       339.1171      5.4530919E-02  0.0000000E+00  0.0000000E+00
   11375.00       340.2190      4.3614354E-02  0.0000000E+00  0.0000000E+00
   11625.00       341.3269      3.4594502E-02  0.0000000E+00  0.0000000E+00
   11875.00       342.4408      2.7190926E-02  0.0000000E+00  0.0000000E+00
   12125.00       344.9724      2.4574272E-02  0.0000000E+00  0.0000000E+00
   12375.00       348.9513      2.5715416E-02  0.0000000E+00  0.0000000E+00
   12625.00       352.9761      2.6911106E-02  0.0000000E+00  0.0000000E+00
   12875.00       357.0473      2.8164061E-02  0.0000000E+00  0.0000000E+00
   13125.00       361.1655      2.9477064E-02  0.0000000E+00  0.0000000E+00
   13375.00       365.3311      3.0853137E-02  0.0000000E+00  0.0000000E+00
   13625.00       369.5448      3.2295462E-02  0.0000000E+00  0.0000000E+00
   13875.00       373.8072      3.3807345E-02  0.0000000E+00  0.0000000E+00
   14125.00       378.1187      3.5392068E-02  0.0000000E+00  0.0000000E+00
   14375.00       382.4798      3.7053265E-02  0.0000000E+00  0.0000000E+00
   14625.00       386.8913      3.8795106E-02  0.0000000E+00  0.0000000E+00
   14875.00       391.3537      4.0621303E-02  0.0000000E+00  0.0000000E+00
   15125.00       395.8676      4.2536203E-02  0.0000000E+00  0.0000000E+00
   15375.00       400.4335      4.4544484E-02  0.0000000E+00  0.0000000E+00
   15625.00       405.0521      4.6650380E-02  0.0000000E+00  0.0000000E+00
   15875.00       409.7239      4.8859127E-02  0.0000000E+00  0.0000000E+00
   16125.00       414.4497      5.1176008E-02  0.0000000E+00  0.0000000E+00
   16375.00       419.2299      5.3606406E-02  0.0000000E+00  0.0000000E+00
   16625.00       424.0653      5.6155890E-02  0.0000000E+00  0.0000000E+00
   16875.00       428.9565      5.8831204E-02  0.0000000E+00  0.0000000E+00
   17125.00       433.9040      6.1637800E-02  0.0000000E+00  0.0000000E+00
   17375.00       438.9086      6.4582929E-02  0.0000000E+00  0.0000000E+00
   17625.00       443.9710      6.7673884E-02  0.0000000E+00  0.0000000E+00
   17875.00       449.0917      7.0917897E-02  0.0000000E+00  0.0000000E+00
   18125.00       454.2715      7.4322589E-02  0.0000000E+00  0.0000000E+00
   18375.00       459.5110      7.7896632E-02  0.0000000E+00  0.0000000E+00
   18625.00       464.8110      8.1648715E-02  0.0000000E+00  0.0000000E+00
   18875.00       470.1721      8.5588045E-02  0.0000000E+00  0.0000000E+00
   19125.00       475.5951      8.9724302E-02  0.0000000E+00  0.0000000E+00
   19375.00       481.0806      9.4000000E-02  0.0000000E+00  0.0000000E+00
   19625.00       486.6293      9.4000000E-02  0.0000000E+00  0.0000000E+00
   19875.00       492.2421      9.4000000E-02  0.0000000E+00  0.0000000E+00
