&time_control
run_hours=6,
start_year=2008,
start_month=02,
start_day=05,
start_hour=21,
end_year=2008,
end_month=02,
end_day=06,
end_hour=03,
interval_seconds=21600,
debug_level=0,
/
iofields_filename                   = "plus.io_config",
ignore_iofields_warning             = .true.,
io_form_auxhist8                    = 2,
auxhist8_interval_h                 = 1,
frames_per_auxhist8                 = 1,
io_form_auxhist7                    = 2,

&domains
time_step=720,
e_we=45,
e_sn=30,
e_vert=41,
p_top_requested=5000,
interp_type=1,
t_extrap_type=1,
dx=120000,
dy=120000,
i_parent_start=0,
j_parent_start=0,
smooth_option=0,
nproc_x=0,
hypsometric_opt=2,
/
&fdda
/
&dfi_control
/
&tc
/
&physics
mp_physics=3,
ra_lw_physics=1,
ra_sw_physics=1,
radt=30,
sf_sfclay_physics=1,
sf_surface_physics=1,
bl_pbl_physics=1,
cu_physics=1,
cudt=0,
num_soil_layers=5,
mp_zero_out=2,
co2tf=0,
/
&scm
/
&dynamics
dyn_opt=102,
w_damping=1,
diff_opt=1,
km_opt=4,
gwd_opt=0,
dampcoef=0.01,
time_step_sound=4,
base_temp=290.0,
use_baseparam_fr_nml=true,
use_input_w=true,
/
&bdy_control
specified=true,
real_data_init_type=3,
/
&grib2
/
&namelist_quilt
/
&perturbation
trajectory_io=true,
check_tl=true,
check_ad=true,
enable_identity=false,
jcdfi_use=true,
jcdfi_diag=1,
jcdfi_penalty=1000.0,
 check_u = .true.
 check_v = .true.
 check_w = .true.
 check_ph = .true.
 check_t = .true.
 check_mu = .true.
 check_moist = .true.
 check_tracer = .true.
 tl_standalone = .false.
 nl_pert       = 0.1,
 numer_vars    = 1,2,3,
 max_numer     = 3,
 denom_vars    = 1,2,3,
 max_denom     = 3,
 scenario_type = 0,
/
