&wrfvar1
/
&wrfvar2
/
&wrfvar3
/
&wrfvar4
/
&wrfvar5
/
&wrfvar6
/
&wrfvar7
/
&wrfvar8
/
&wrfvar9
trace_use=false
/
&wrfvar10
/
&wrfvar11
/
&wrfvar12
/
&wrfvar13
/
&wrfvar14
/
&wrfvar15
/
&wrfvar16
/
&wrfvar17
/
&wrfvar18
analysis_date="2007-01-02_00:00:00.0000",
/
&wrfvar19
/
&wrfvar20
/
&wrfvar21
time_window_min="2007-01-01_21:00:00.0000",
/
&wrfvar22
time_window_max="2007-01-02_03:00:00.0000",
/
&wrfvar23
/
&time_control
start_year=2007,
start_month=01,
start_day=02,
start_hour=00,
end_year=2007,
end_month=01,
end_day=02,
end_hour=00,
/
&dfi_control
/
&domains
e_we=45,
e_sn=45,
e_vert=28,
dx=200000,
dy=200000,
/
&physics
mp_physics=3,
sf_sfclay_physics=1,
sf_surface_physics=1,
num_soil_layers=5
/
&fdda
/
&dynamics
/
&bdy_control
/
&grib2
/
&namelist_quilt
/

