&time_control
run_hours=06,
start_year=2008,
start_month=02,
start_day=05,
start_hour=12,
end_year=2008,
end_month=02,
end_day=05,
end_hour=18,
interval_seconds=21600,
input_from_file=true,
history_interval=9999,
frames_per_outfile=1,
frames_per_auxhist2=1,
debug_level=0,
auxhist2_outname="./nl/auxhist2_d<domain>_<date>",
inputout_interval=60,
auxhist2_interval=6,
inputout_begin_h=0,
inputout_end_h=6,
input_outname="./nl/nl_d<domain>_<date>",
write_input=true,
/
&fdda
/
&domains
time_step=360,
e_we=90,
e_sn=60,
e_vert=41,
num_metgrid_levels=27,
p_top_requested=5000,
interp_type=1,
t_extrap_type=1,
dx=60000,
dy=60000,
i_parent_start=0,
j_parent_start=0,
smooth_option=0,
eta_levels= 1.00, 0.993, 0.983, 0.97, 0.954, 0.934, 0.909, 0.88, 0.8209301, 0.7649701,                                        0.7119828, 0.6618364, 0.6144041, 0.5695635, 0.5271972, 0.4871921,                                        0.4494396, 0.4138351, 0.3802781, 0.3486722, 0.3189246, 0.2909462,                                        0.2646514, 0.2399583, 0.2167879, 0.1950646, 0.1747158, 0.1556721,                                        0.1378668, 0.1212358, 0.1057179, 0.09125441, 0.07778916, 0.06526828,                                        0.05364022, 0.04285565, 0.03286732, 0.02363, 0.01510039, 0.007236987, 0.00 ,
/
&dfi_control
/
&tc
/
&physics
mp_physics=3,
ra_lw_physics=1,
ra_sw_physics=1,
radt=60,
sf_sfclay_physics=1,
sf_surface_physics=1,
bl_pbl_physics=1,
cu_physics=1,
cudt=5,
num_soil_layers=5,
mp_zero_out=2,
co2tf=0,
/
&scm
/
&dynamics
dyn_opt=2,
w_damping=0,
diff_opt=0,
km_opt=1,
dampcoef=0.2,
time_step_sound=4,
base_temp=290.0,
use_baseparam_fr_nml=true,
/
&bdy_control
specified=true,
real_data_init_type=3,
/
&grib2
/
&fire
/
&namelist_quilt
/
