&dynamics
dyn_opt=2,
w_damping=1,
diff_opt=1,
km_opt=4,
dampcoef=0.01,
time_step_sound=4,
base_temp=290.0,
use_baseparam_fr_nml=true,
/
&time_control
run_hours=6,
start_year=2008,
start_month=02,
start_day=05,
start_hour=12,
end_year=2008,
end_month=02,
end_day=05,
end_hour=18,
interval_seconds=21600,
input_from_file=true,
auxhist2_outname="auxhist2_d<domain>_<date>",
auxhist2_interval=6,
io_form_auxhist2=2,
frames_per_auxhist2=1,
history_interval=9999,
frames_per_outfile=1,
debug_level=0,
inputout_interval=60,
inputout_begin_h=0,
inputout_end_h=6,
input_outname="nl_d<domain>_<date>",
write_input=true,
/
&domains
time_step=360,
e_we=90,
e_sn=60,
e_vert=41,
num_metgrid_levels=27,
p_top_requested=5000,
interp_type=1,
t_extrap_type=1,
dx=60000,
dy=60000,
i_parent_start=0,
j_parent_start=0,
smooth_option=0,
nproc_x=0,
eta_levels=1.0, 0.99, 0.98, 0.96, 0.92, 0.87, 0.81, 0.75, 0.68, 0.6, 0.52, 0.44, 0.36,0.28, 0.2, 0.1, 0.0,
/
&fdda
/
&dfi_control
/
&tc
/
&physics
mp_physics=3,
ra_lw_physics=1,
ra_sw_physics=1,
radt=60,
sf_sfclay_physics=1,
sf_surface_physics=1,
bl_pbl_physics=1,
cu_physics=1,
cudt=5,
num_soil_layers=5,
mp_zero_out=2,
co2tf=0,
/
&scm
/
&bdy_control
specified=true,
real_data_init_type=3,
/
&grib2
/
&fire
/
&namelist_quilt
/
