 &time_control
 run_days                            = 0,
 run_hours                           = 0,
 run_minutes                         = RUN_M,
 run_seconds                         = 0,
 start_year                          = 0001, 0001, 0001,
 start_month                         = 01,   01,   01,
 start_day                           = 01,   01,   01,
 start_hour                          = 00,   00,   00,
 start_minute                        = 00,   00,   00,
 start_second                        = 00,   00,   00,
 end_year                            = 0001, 0001, 0001,
 end_month                           = 01,   01,   01,
 end_day                             = 01,   01,   01,
 end_hour                            = 00,   00,   00,
 end_minute                          = 600,   600,   600,
 end_second                          = 00,   00,   00,
 history_interval                    = RUN_M,   30,   30,
 frames_per_outfile                  = 1000, 1000, 1000,
 restart                             = .false.,
 restart_interval                    = RUN_M,
 io_form_history                     = 2
 io_form_restart                     = 2
 io_form_input                       = 2
 io_form_boundary                    = 2
 debug_level                         = 0 
 /

 &domains
 time_step                           = TIME_STEP_INT,
 !time_step                           = 5,
 time_step_fract_num                 = TIME_STEP_FRAC,
 time_step_fract_den                 = 10,
 max_dom                             = 1,
 s_we                                = 1,     1,     1,
 e_we                                = MESH_X,    43,    43,
 s_sn                                = 1,     1,     1,
 e_sn                                = MESH_Y,    43,    43,
 s_vert                              = 1,     1,     1,
 e_vert                              = MESH_Z,    41,    41,
 dx                                  = DX,    30,    10,
 dy                                  = DY,    30,    10,
 ztop                                = 1500, 1500, 1500,
 grid_id                             = 1,     2,     3,
 parent_id                           = 0,     1,     2,
 i_parent_start                      = 0,     1,    1,
 j_parent_start                      = 0,     1,    1,
 parent_grid_ratio                   = 1,     2,     3,
 parent_time_step_ratio              = 1,     2,     3,
 feedback                            = 1,
 smooth_option                       = 0
 sr_x                                = SR_X,     0,     0 ! subgrid ratio in x
 sr_y                                = SR_Y,     0,     0 ! subgrid ratio in y
 !sr_x                                = 20,     0,     0    ! subgrid ratio in x
 !sr_y                                = 20,     0,     0    ! subgrid ratio in y
 /

 &physics
 mp_physics                          = 0,     0,     0,
 ra_lw_physics                       = 0,     0,     0,
 ra_sw_physics                       = 0,     0,     0,
 radt                                = 30,    30,    30,
 sf_sfclay_physics                   = 0,     0,     0,
 sf_surface_physics                  = 0,     0,     0,
 bl_pbl_physics                      = 0,     0,     0,
 bldt                                = 0,     0,     0,
 cu_physics                          = 0,     0,     0,
 cudt                                = 0,     0,     0,
 isfflx                              = 1,
 ifsnow                              = 0,
 icloud                              = 0,
 num_soil_layers                     = 5,
 mp_zero_out                         = 0,
 /

 &fdda
 /

 &dynamics
 dyn_opt                             = 2,
 rk_ord                              = 3,
 diff_opt                            = 2,
 km_opt                              = 2,
 damp_opt                            = 0,
 zdamp                               = 5000.,  5000.,  5000.,
 dampcoef                            = 0.2,    0.2,    0.2
 khdif                               = 0.05,   0.05,   0.05,
 kvdif                               = 0.05,   0.05,   0.05,
 smdiv                               = 0.1,    0.1,    0.1,
 emdiv                               = 0.01,   0.01,   0.01,
 epssm                               = 0.1,    0.1,    0.1
 mix_full_fields                     = .true., .true., .true.,
 non_hydrostatic                     = .true., .true., .true.,
 h_mom_adv_order                     = 5,      5,      5,
 v_mom_adv_order                     = 3,      3,      3,
 h_sca_adv_order                     = 5,      5,      5,
 v_sca_adv_order                     = 3,      3,      3,
 time_step_sound                     = 20,     20,     20,
 pd_moist                            = .false., .false., .false.,
 pd_scalar                           = .false., .false., .false.,
 pd_chem                             = .false., .false., .false.,
 pd_tke                              = .false., .false., .false.,
 /

 &bdy_control
 periodic_x                          = .false.,.false.,.false.,
 symmetric_xs                        = .false.,.false.,.false.,
 symmetric_xe                        = .false.,.false.,.false.,
 open_xs                             = .true., .false.,.false.,
 open_xe                             = .true., .false.,.false.,
 periodic_y                          = .false.,.false.,.false.,
 symmetric_ys                        = .false.,.false.,.false.,
 symmetric_ye                        = .false.,.false.,.false.,
 open_ys                             = .true., .false.,.false.,
 open_ye                             = .true., .false.,.false.,
 nested                              = .false., .true., .true.,
 /

 &grib2
 /

 &namelist_quilt
 nio_tasks_per_group = 0,
 nio_groups = 1,
 /

 &fire ! be sure to set sr_x,sr_y in domains-namelist (to set refinement in x,y)
 ifire              = 3,    ! integer, = 0: no fire, = 1: cc_fire, 2=sfire through Ned's driver, 3=sfire
! ignition for cawfe
!fire_lat_init      =   40.,    ! real   , initial fire latitude (deg)
!fire_lon_init      = -105.,    ! real   , initial fire longitude (deg)
 fire_lat_init      = 6.75e-3,  ! real   , initial fire latitude (deg)
 fire_lon_init      = 6.70e-3,  ! real   , initial fire longitude (deg)
 fire_ign_time      = 30.,      ! real   , time of fire ignition (s)
 fire_shape         = 1,    ! integer, initial fire shape
! ignition for sfire
 fire_num_ignitions = 3,        ! integer, only the first fire_num_ignition used, up to 5 allowed
 fire_ignition_start_x1 = 1000  ! start points of ignition lines, in m from lower left corner
 fire_ignition_start_y1 =  500  ! start points of ignition lines, in m from lower left corner
 fire_ignition_end_x1 =   1000  ! end points of ignition lines, in m from lower left corner
 fire_ignition_end_y1 =   1900  ! end points of ignition lines, in m from lower left corner
 fire_ignition_radius1 =    18  ! all within this radius will ignite, > fire mesh step
 fire_ignition_time1  =      2  ! sec for ignition from the start
 fire_ignition_start_x2 = 1500  ! start points of ignition lines, in m from lower left corner
 fire_ignition_start_y2 =  500  ! start points of ignition lines, in m from lower left corner
 fire_ignition_end_x2 =   1500  ! end points of ignition lines, in m from lower left corner
 fire_ignition_end_y2 =   1900  ! end points of ignition lines, in m from lower left corner
 fire_ignition_radius2 =    18  ! all within this radius will ignite, > fire mesh step
 fire_ignition_time2  =      3  ! sec for ignition from the start! end ignition for sfire
 fire_ignition_start_x3 = 1400  ! start points of ignition lines, in m from lower left corner
 fire_ignition_start_y3 = 1400  ! start points of ignition lines, in m from lower left corner
 fire_ignition_end_x3 =   1400  ! end points of ignition lines, in m from lower left corner
 fire_ignition_end_y3 =   1400  ! end points of ignition lines, in m from lower left corner
 fire_ignition_radius3 =    50  ! all within this radius will ignite, > fire mesh step
 fire_ignition_time3  =      4  ! sec for ignition from the start! end ignition for sfire
 fire_sprd_mdl      = 1,    ! integer, = 0: Macarthur, = 1: BEHAVE
 fire_crwn_hgt      = 15.,  ! real   , height of canopy crown (m)
 fire_ext_grnd      = 50.,  ! real   , extinction coeff ground fire
 fire_ext_crwn      = 50.,  ! real   , extinction coeff crown fire 
 fire_fuel_read     = 0,    ! integer, 0= use fire_fuel_cat, 1= by altitude 2= read from file
 fire_fuel_cat      = 3,    ! integer, if specified which fuel category?
 /
