1000.000 288.00 0.00
0.00 288.00 0.00 20.00 0.00
50.00 288.15 0.00 20.00 0.00
100.00 288.30 0.00 20.00 0.00
150.00 288.45 0.00 20.00 0.00
200.00 288.60 0.00 20.00 0.00
250.00 288.75 0.00 20.00 0.00
300.00 288.90 0.00 20.00 0.00
350.00 289.05 0.00 20.00 0.00
400.00 289.20 0.00 20.00 0.00
450.00 289.35 0.00 20.00 0.00
500.00 289.50 0.00 20.00 0.00
550.00 289.65 0.00 20.00 0.00
600.00 289.80 0.00 20.00 0.00
650.00 289.95 0.00 20.00 0.00
700.00 290.10 0.00 20.00 0.00
750.00 290.25 0.00 20.00 0.00
800.00 290.40 0.00 20.00 0.00
850.00 290.55 0.00 20.00 0.00
900.00 290.70 0.00 20.00 0.00
950.00 290.85 0.00 20.00 0.00
1000.00 291.00 0.00 20.00 0.00
1050.00 291.15 0.00 20.00 0.00
1100.00 291.30 0.00 20.00 0.00
1150.00 291.45 0.00 20.00 0.00
1200.00 291.60 0.00 20.00 0.00
1250.00 291.75 0.00 20.00 0.00
1300.00 291.90 0.00 20.00 0.00
1350.00 292.05 0.00 20.00 0.00
1400.00 292.20 0.00 20.00 0.00
1450.00 292.35 0.00 20.00 0.00
1500.00 292.50 0.00 20.00 0.00
1550.00 292.65 0.00 20.00 0.00
1600.00 292.80 0.00 20.00 0.00
1650.00 292.95 0.00 20.00 0.00
1700.00 293.10 0.00 20.00 0.00
1750.00 293.25 0.00 20.00 0.00
1800.00 293.40 0.00 20.00 0.00
1850.00 293.55 0.00 20.00 0.00
1900.00 293.70 0.00 20.00 0.00
1950.00 293.85 0.00 20.00 0.00
2000.00 294.00 0.00 20.00 0.00
2050.00 294.15 0.00 20.00 0.00
2100.00 294.30 0.00 20.00 0.00
2150.00 294.45 0.00 20.00 0.00
2200.00 294.60 0.00 20.00 0.00
2250.00 294.75 0.00 20.00 0.00
2300.00 294.90 0.00 20.00 0.00
2350.00 295.05 0.00 20.00 0.00
2400.00 295.20 0.00 20.00 0.00
2450.00 295.35 0.00 20.00 0.00
2500.00 295.50 0.00 20.00 0.00
2550.00 295.65 0.00 20.00 0.00
2600.00 295.80 0.00 20.00 0.00
2650.00 295.95 0.00 20.00 0.00
2700.00 296.10 0.00 20.00 0.00
2750.00 296.25 0.00 20.00 0.00
2800.00 296.40 0.00 20.00 0.00
2850.00 296.55 0.00 20.00 0.00
2900.00 296.70 0.00 20.00 0.00
2950.00 296.85 0.00 20.00 0.00
3000.00 297.00 0.00 20.00 0.00
3050.00 297.15 0.00 20.00 0.00
3100.00 297.30 0.00 20.00 0.00
3150.00 297.45 0.00 20.00 0.00
3200.00 297.60 0.00 20.00 0.00
3250.00 297.75 0.00 20.00 0.00
3300.00 297.90 0.00 20.00 0.00
3350.00 298.05 0.00 20.00 0.00
3400.00 298.20 0.00 20.00 0.00
3450.00 298.35 0.00 20.00 0.00
3500.00 298.50 0.00 20.00 0.00
3550.00 298.65 0.00 20.00 0.00
3600.00 298.80 0.00 20.00 0.00
3650.00 298.95 0.00 20.00 0.00
3700.00 299.10 0.00 20.00 0.00
3750.00 299.25 0.00 20.00 0.00
3800.00 299.40 0.00 20.00 0.00
3850.00 299.55 0.00 20.00 0.00
3900.00 299.70 0.00 20.00 0.00
3950.00 299.85 0.00 20.00 0.00
4000.00 300.00 0.00 20.00 0.00
4050.00 300.15 0.00 20.00 0.00
4100.00 300.30 0.00 20.00 0.00
4150.00 300.45 0.00 20.00 0.00
4200.00 300.60 0.00 20.00 0.00
4250.00 300.75 0.00 20.00 0.00
4300.00 300.90 0.00 20.00 0.00
4350.00 301.05 0.00 20.00 0.00
4400.00 301.20 0.00 20.00 0.00
4450.00 301.35 0.00 20.00 0.00
4500.00 301.50 0.00 20.00 0.00
4550.00 301.65 0.00 20.00 0.00
4600.00 301.80 0.00 20.00 0.00
4650.00 301.95 0.00 20.00 0.00
4700.00 302.10 0.00 20.00 0.00
4750.00 302.25 0.00 20.00 0.00
4800.00 302.40 0.00 20.00 0.00
4850.00 302.55 0.00 20.00 0.00
4900.00 302.70 0.00 20.00 0.00
4950.00 302.85 0.00 20.00 0.00
5000.00 303.00 0.00 20.00 0.00
5050.00 303.15 0.00 20.00 0.00
5100.00 303.30 0.00 20.00 0.00
5150.00 303.45 0.00 20.00 0.00
5200.00 303.60 0.00 20.00 0.00
5250.00 303.75 0.00 20.00 0.00
5300.00 303.90 0.00 20.00 0.00
5350.00 304.05 0.00 20.00 0.00
5400.00 304.20 0.00 20.00 0.00
5450.00 304.35 0.00 20.00 0.00
5500.00 304.50 0.00 20.00 0.00
5550.00 304.65 0.00 20.00 0.00
5600.00 304.80 0.00 20.00 0.00
5650.00 304.95 0.00 20.00 0.00
5700.00 305.10 0.00 20.00 0.00
5750.00 305.25 0.00 20.00 0.00
5800.00 305.40 0.00 20.00 0.00
5850.00 305.55 0.00 20.00 0.00
5900.00 305.70 0.00 20.00 0.00
5950.00 305.85 0.00 20.00 0.00
6000.00 306.00 0.00 20.00 0.00
6050.00 306.15 0.00 20.00 0.00
6100.00 306.30 0.00 20.00 0.00
6150.00 306.45 0.00 20.00 0.00
6200.00 306.60 0.00 20.00 0.00
6250.00 306.75 0.00 20.00 0.00
6300.00 306.90 0.00 20.00 0.00
6350.00 307.05 0.00 20.00 0.00
6400.00 307.20 0.00 20.00 0.00
6450.00 307.35 0.00 20.00 0.00
6500.00 307.50 0.00 20.00 0.00
6550.00 307.65 0.00 20.00 0.00
6600.00 307.80 0.00 20.00 0.00
6650.00 307.95 0.00 20.00 0.00
6700.00 308.10 0.00 20.00 0.00
6750.00 308.25 0.00 20.00 0.00
6800.00 308.40 0.00 20.00 0.00
6850.00 308.55 0.00 20.00 0.00
6900.00 308.70 0.00 20.00 0.00
6950.00 308.85 0.00 20.00 0.00
7000.00 309.00 0.00 20.00 0.00
7050.00 309.15 0.00 20.00 0.00
7100.00 309.30 0.00 20.00 0.00
7150.00 309.45 0.00 20.00 0.00
7200.00 309.60 0.00 20.00 0.00
7250.00 309.75 0.00 20.00 0.00
7300.00 309.90 0.00 20.00 0.00
7350.00 310.05 0.00 20.00 0.00
7400.00 310.20 0.00 20.00 0.00
7450.00 310.35 0.00 20.00 0.00
7500.00 310.50 0.00 20.00 0.00
7550.00 310.65 0.00 20.00 0.00
7600.00 310.80 0.00 20.00 0.00
7650.00 310.95 0.00 20.00 0.00
7700.00 311.10 0.00 20.00 0.00
7750.00 311.25 0.00 20.00 0.00
7800.00 311.40 0.00 20.00 0.00
7850.00 311.55 0.00 20.00 0.00
7900.00 311.70 0.00 20.00 0.00
7950.00 311.85 0.00 20.00 0.00
8000.00 312.00 0.00 20.00 0.00
8050.00 312.15 0.00 20.00 0.00
8100.00 312.30 0.00 20.00 0.00
8150.00 312.45 0.00 20.00 0.00
8200.00 312.60 0.00 20.00 0.00
8250.00 312.75 0.00 20.00 0.00
8300.00 312.90 0.00 20.00 0.00
8350.00 313.05 0.00 20.00 0.00
8400.00 313.20 0.00 20.00 0.00
8450.00 313.35 0.00 20.00 0.00
8500.00 313.50 0.00 20.00 0.00
8550.00 313.65 0.00 20.00 0.00
8600.00 313.80 0.00 20.00 0.00
8650.00 313.95 0.00 20.00 0.00
8700.00 314.10 0.00 20.00 0.00
8750.00 314.25 0.00 20.00 0.00
8800.00 314.40 0.00 20.00 0.00
8850.00 314.55 0.00 20.00 0.00
8900.00 314.70 0.00 20.00 0.00
8950.00 314.85 0.00 20.00 0.00
9000.00 315.00 0.00 20.00 0.00
9050.00 315.15 0.00 20.00 0.00
9100.00 315.30 0.00 20.00 0.00
9150.00 315.45 0.00 20.00 0.00
9200.00 315.60 0.00 20.00 0.00
9250.00 315.75 0.00 20.00 0.00
9300.00 315.90 0.00 20.00 0.00
9350.00 316.05 0.00 20.00 0.00
9400.00 316.20 0.00 20.00 0.00
9450.00 316.35 0.00 20.00 0.00
9500.00 316.50 0.00 20.00 0.00
9550.00 316.65 0.00 20.00 0.00
9600.00 316.80 0.00 20.00 0.00
9650.00 316.95 0.00 20.00 0.00
9700.00 317.10 0.00 20.00 0.00
9750.00 317.25 0.00 20.00 0.00
9800.00 317.40 0.00 20.00 0.00
9850.00 317.55 0.00 20.00 0.00
9900.00 317.70 0.00 20.00 0.00
9950.00 317.85 0.00 20.00 0.00
10000.00 318.00 0.00 20.00 0.00
10050.00 318.15 0.00 20.00 0.00
10100.00 318.30 0.00 20.00 0.00
10150.00 318.45 0.00 20.00 0.00
10200.00 318.60 0.00 20.00 0.00
10250.00 318.75 0.00 20.00 0.00
10300.00 318.90 0.00 20.00 0.00
10350.00 319.05 0.00 20.00 0.00
10400.00 319.20 0.00 20.00 0.00
10450.00 319.35 0.00 20.00 0.00
10500.00 319.50 0.00 20.00 0.00
10550.00 319.65 0.00 20.00 0.00
10600.00 319.80 0.00 20.00 0.00
10650.00 319.95 0.00 20.00 0.00
10700.00 320.10 0.00 20.00 0.00
10750.00 320.25 0.00 20.00 0.00
10800.00 320.40 0.00 20.00 0.00
10850.00 320.55 0.00 20.00 0.00
10900.00 320.70 0.00 20.00 0.00
10950.00 320.85 0.00 20.00 0.00
11000.00 321.00 0.00 20.00 0.00
11050.00 321.15 0.00 20.00 0.00
11100.00 321.30 0.00 20.00 0.00
11150.00 321.45 0.00 20.00 0.00
11200.00 321.60 0.00 20.00 0.00
11250.00 321.75 0.00 20.00 0.00
11300.00 321.90 0.00 20.00 0.00
11350.00 322.05 0.00 20.00 0.00
11400.00 322.20 0.00 20.00 0.00
11450.00 322.35 0.00 20.00 0.00
11500.00 322.50 0.00 20.00 0.00
11550.00 322.65 0.00 20.00 0.00
11600.00 322.80 0.00 20.00 0.00
11650.00 322.95 0.00 20.00 0.00
11700.00 323.10 0.00 20.00 0.00
11750.00 323.25 0.00 20.00 0.00
11800.00 323.40 0.00 20.00 0.00
11850.00 323.55 0.00 20.00 0.00
11900.00 323.70 0.00 20.00 0.00
11950.00 323.85 0.00 20.00 0.00
12000.00 324.00 0.00 20.00 0.00
12050.00 324.15 0.00 20.00 0.00
12100.00 324.30 0.00 20.00 0.00
12150.00 324.45 0.00 20.00 0.00
12200.00 324.60 0.00 20.00 0.00
12250.00 324.75 0.00 20.00 0.00
12300.00 324.90 0.00 20.00 0.00
12350.00 325.05 0.00 20.00 0.00
12400.00 325.20 0.00 20.00 0.00
12450.00 325.35 0.00 20.00 0.00
12500.00 325.50 0.00 20.00 0.00
12550.00 325.65 0.00 20.00 0.00
12600.00 325.80 0.00 20.00 0.00
12650.00 325.95 0.00 20.00 0.00
12700.00 326.10 0.00 20.00 0.00
12750.00 326.25 0.00 20.00 0.00
12800.00 326.40 0.00 20.00 0.00
12850.00 326.55 0.00 20.00 0.00
12900.00 326.70 0.00 20.00 0.00
12950.00 326.85 0.00 20.00 0.00
13000.00 327.00 0.00 20.00 0.00
13050.00 327.15 0.00 20.00 0.00
13100.00 327.30 0.00 20.00 0.00
13150.00 327.45 0.00 20.00 0.00
13200.00 327.60 0.00 20.00 0.00
13250.00 327.75 0.00 20.00 0.00
13300.00 327.90 0.00 20.00 0.00
13350.00 328.05 0.00 20.00 0.00
13400.00 328.20 0.00 20.00 0.00
13450.00 328.35 0.00 20.00 0.00
13500.00 328.50 0.00 20.00 0.00
13550.00 328.65 0.00 20.00 0.00
13600.00 328.80 0.00 20.00 0.00
13650.00 328.95 0.00 20.00 0.00
13700.00 329.10 0.00 20.00 0.00
13750.00 329.25 0.00 20.00 0.00
13800.00 329.40 0.00 20.00 0.00
13850.00 329.55 0.00 20.00 0.00
13900.00 329.70 0.00 20.00 0.00
13950.00 329.85 0.00 20.00 0.00
14000.00 330.00 0.00 20.00 0.00
14050.00 330.15 0.00 20.00 0.00
14100.00 330.30 0.00 20.00 0.00
14150.00 330.45 0.00 20.00 0.00
14200.00 330.60 0.00 20.00 0.00
14250.00 330.75 0.00 20.00 0.00
14300.00 330.90 0.00 20.00 0.00
14350.00 331.05 0.00 20.00 0.00
14400.00 331.20 0.00 20.00 0.00
14450.00 331.35 0.00 20.00 0.00
14500.00 331.50 0.00 20.00 0.00
14550.00 331.65 0.00 20.00 0.00
14600.00 331.80 0.00 20.00 0.00
14650.00 331.95 0.00 20.00 0.00
14700.00 332.10 0.00 20.00 0.00
14750.00 332.25 0.00 20.00 0.00
14800.00 332.40 0.00 20.00 0.00
14850.00 332.55 0.00 20.00 0.00
14900.00 332.70 0.00 20.00 0.00
14950.00 332.85 0.00 20.00 0.00
15000.00 333.00 0.00 20.00 0.00
15050.00 333.15 0.00 20.00 0.00
15100.00 333.30 0.00 20.00 0.00
15150.00 333.45 0.00 20.00 0.00
15200.00 333.60 0.00 20.00 0.00
15250.00 333.75 0.00 20.00 0.00
15300.00 333.90 0.00 20.00 0.00
15350.00 334.05 0.00 20.00 0.00
15400.00 334.20 0.00 20.00 0.00
15450.00 334.35 0.00 20.00 0.00
15500.00 334.50 0.00 20.00 0.00
15550.00 334.65 0.00 20.00 0.00
15600.00 334.80 0.00 20.00 0.00
15650.00 334.95 0.00 20.00 0.00
15700.00 335.10 0.00 20.00 0.00
15750.00 335.25 0.00 20.00 0.00
15800.00 335.40 0.00 20.00 0.00
15850.00 335.55 0.00 20.00 0.00
15900.00 335.70 0.00 20.00 0.00
15950.00 335.85 0.00 20.00 0.00
16000.00 336.00 0.00 20.00 0.00
16050.00 336.15 0.00 20.00 0.00
16100.00 336.30 0.00 20.00 0.00
16150.00 336.45 0.00 20.00 0.00
16200.00 336.60 0.00 20.00 0.00
16250.00 336.75 0.00 20.00 0.00
16300.00 336.90 0.00 20.00 0.00
16350.00 337.05 0.00 20.00 0.00
16400.00 337.20 0.00 20.00 0.00
16450.00 337.35 0.00 20.00 0.00
16500.00 337.50 0.00 20.00 0.00
16550.00 337.65 0.00 20.00 0.00
16600.00 337.80 0.00 20.00 0.00
16650.00 337.95 0.00 20.00 0.00
16700.00 338.10 0.00 20.00 0.00
16750.00 338.25 0.00 20.00 0.00
16800.00 338.40 0.00 20.00 0.00
16850.00 338.55 0.00 20.00 0.00
16900.00 338.70 0.00 20.00 0.00
16950.00 338.85 0.00 20.00 0.00
17000.00 339.00 0.00 20.00 0.00
17050.00 339.15 0.00 20.00 0.00
17100.00 339.30 0.00 20.00 0.00
17150.00 339.45 0.00 20.00 0.00
17200.00 339.60 0.00 20.00 0.00
17250.00 339.75 0.00 20.00 0.00
17300.00 339.90 0.00 20.00 0.00
17350.00 340.05 0.00 20.00 0.00
17400.00 340.20 0.00 20.00 0.00
17450.00 340.35 0.00 20.00 0.00
17500.00 340.50 0.00 20.00 0.00
17550.00 340.65 0.00 20.00 0.00
17600.00 340.80 0.00 20.00 0.00
17650.00 340.95 0.00 20.00 0.00
17700.00 341.10 0.00 20.00 0.00
17750.00 341.25 0.00 20.00 0.00
17800.00 341.40 0.00 20.00 0.00
17850.00 341.55 0.00 20.00 0.00
17900.00 341.70 0.00 20.00 0.00
17950.00 341.85 0.00 20.00 0.00
18000.00 342.00 0.00 20.00 0.00
18050.00 342.15 0.00 20.00 0.00
18100.00 342.30 0.00 20.00 0.00
18150.00 342.45 0.00 20.00 0.00
18200.00 342.60 0.00 20.00 0.00
18250.00 342.75 0.00 20.00 0.00
18300.00 342.90 0.00 20.00 0.00
18350.00 343.05 0.00 20.00 0.00
18400.00 343.20 0.00 20.00 0.00
18450.00 343.35 0.00 20.00 0.00
18500.00 343.50 0.00 20.00 0.00
18550.00 343.65 0.00 20.00 0.00
18600.00 343.80 0.00 20.00 0.00
18650.00 343.95 0.00 20.00 0.00
18700.00 344.10 0.00 20.00 0.00
18750.00 344.25 0.00 20.00 0.00
18800.00 344.40 0.00 20.00 0.00
18850.00 344.55 0.00 20.00 0.00
18900.00 344.70 0.00 20.00 0.00
18950.00 344.85 0.00 20.00 0.00
19000.00 345.00 0.00 20.00 0.00
19050.00 345.15 0.00 20.00 0.00
19100.00 345.30 0.00 20.00 0.00
19150.00 345.45 0.00 20.00 0.00
19200.00 345.60 0.00 20.00 0.00
19250.00 345.75 0.00 20.00 0.00
19300.00 345.90 0.00 20.00 0.00
19350.00 346.05 0.00 20.00 0.00
19400.00 346.20 0.00 20.00 0.00
19450.00 346.35 0.00 20.00 0.00
19500.00 346.50 0.00 20.00 0.00
19550.00 346.65 0.00 20.00 0.00
19600.00 346.80 0.00 20.00 0.00
19650.00 346.95 0.00 20.00 0.00
19700.00 347.10 0.00 20.00 0.00
19750.00 347.25 0.00 20.00 0.00
19800.00 347.40 0.00 20.00 0.00
19850.00 347.55 0.00 20.00 0.00
19900.00 347.70 0.00 20.00 0.00
19950.00 347.85 0.00 20.00 0.00
20000.00 348.00 0.00 20.00 0.00
