&wrfvar1
wrfvar_mem_model=2,
var4d=true,
multi_inc=0,
print_detail_grad=false,
/
&wrfvar2
/
&wrfvar3
ob_format=2,
num_fgat_time=7,
/
&wrfvar4
use_synopobs=true,
use_shipsobs=true,
use_metarobs=true,
use_soundobs=true,
use_pilotobs=true,
use_airepobs=true,
use_geoamvobs=true,
use_polaramvobs=true,
use_bogusobs=true,
use_buoyobs=true,
use_profilerobs=true,
use_satemobs=true,
use_gpspwobs=true,
use_gpsrefobs=true,
use_qscatobs=true,
/
&wrfvar5
check_max_iv=true,
put_rand_seed=false,
/
&wrfvar6
max_ext_its=1,
ntmax=50,
/
&wrfvar7
cv_options=5,
je_factor=1.0,
/
&wrfvar8
/
&wrfvar9
trace_memory=false,
/
&wrfvar10
test_transforms=false,
/
&wrfvar11
cv_options_hum=1,
check_rh=2,
seed_array1=2003010100,
seed_array2=2003010100,
sfc_assi_options=1,
calculate_cg_cost_fn=false,
/
&wrfvar12
/
&wrfvar13
/
&wrfvar14
/
&wrfvar15
/
&wrfvar16
alphacv_method=2,
ensdim_alpha=0,
alpha_truncation=0,
alpha_corr_type=3,
alpha_corr_scale=1500,
alpha_std_dev=1.0,
/
&wrfvar17
analysis_type="3D-VAR",
/
&wrfvar18
analysis_date="2008-02-05_12:00:00.0000",
/
&wrfvar19
/
&wrfvar20
/
&wrfvar21
time_window_min="2008-02-05_12:00:00.0000",
/
&wrfvar22
time_window_max="2008-02-05_18:00:00.0000",
/
&wrfvar23
jcdfi_use=false,
jcdfi_io=false,
jcdfi_tauc=6,
jcdfi_gama=5.0,
jcdfi_error_wind=3.0,
jcdfi_error_t=1.0,
jcdfi_error_mu=1000.,
/
&time_control
run_hours=6,
start_year=2008,
start_month=02,
start_day=05,
start_hour=12,
end_year=2008,
end_month=02,
end_day=05,
end_hour=18,
interval_seconds=21600,
input_from_file=true,
auxhist2_interval=60,
io_form_auxhist2=2,
frames_per_auxhist2=1,
history_interval=720,
frames_per_outfile=1,
debug_level=0,
inputout_interval=360,
inputout_begin_h=0,
inputout_end_h=6,
input_outname="wrfinput_d<domain>_<date>",
write_input=true,
/
&domains
time_step=360,
e_we=90,
e_sn=60,
e_vert=41,
num_metgrid_levels=27,
p_top_requested=5000,
interp_type=1,
t_extrap_type=1,
dx=60000,
dy=60000,
i_parent_start=0,
j_parent_start=0,
smooth_option=0,
nproc_x=0,
eta_levels=1.0, 0.99, 0.98, 0.96, 0.92, 0.87, 0.81, 0.75, 0.68, 0.6, 0.52, 0.44, 0.36,0.28, 0.2, 0.1, 0.0,
/
&fdda
/
&dfi_control
/
&tc
/
&physics
mp_physics=3,
ra_lw_physics=1,
ra_sw_physics=1,
radt=60,
sf_sfclay_physics=1,
sf_surface_physics=1,
bl_pbl_physics=1,
cu_physics=1,
cudt=5,
num_soil_layers=5,
mp_zero_out=2,
co2tf=0,
/
&scm
/
&dynamics
w_damping=1,
diff_opt=1,
km_opt=4,
dampcoef=0.01,
time_step_sound=4,
base_temp=290.0,
use_baseparam_fr_nml=true,
/
&bdy_control
specified=true,
real_data_init_type=3,
/
&grib2
/
&namelist_quilt
/
