 &time_control
 run_days                            = 0,
 run_hours                           = 6,
 run_minutes                         = 0,
 run_seconds                         = 0,
 start_year                          = 2008, 2008, 0001,
 start_month                         = 02,   02,   01,
 start_day                           = 05,   05,   01,
 start_hour                          = 12,   12,   00,
 start_minute                        = 00,   00,   00,
 start_second                        = 00,   00,   00,
 end_year                            = 2008, 2008, 0010,
 end_month                           = 02,   02,   01,
 end_day                             = 06,   05,   01,
 end_hour                            = 00,   18,   00,
 end_minute                          = 00,   00,   00,
 end_second                          = 00,   00,   00,
 history_interval                    = 360, 360,  360,
 interval_seconds                    = 21600
 frames_per_outfile                  = 1,    1,    100,
 restart                             = .false.,
 input_from_file                     = .true., .true., .true., 
 restart_interval_h                  = 1120,
 io_form_history                     = 2
 io_form_restart                     = 2
 io_form_input                       = 2
 io_form_boundary                    = 2
 debug_level                         = 100
 /

 &domains
 time_step                           = 360
 time_step_fract_num                 = 0
 time_step_fract_den                 = 11
 max_dom                             = 1,
 e_we                                = 90,    112,    41,
 e_sn                                = 60,     97,    81,
 e_vert                              = 41,     41,    41,
 p_top_requested                     = 5000,
 num_metgrid_levels                  = 27,
 num_metgrid_soil_levels             = 4,
 dx                                  = 60000, 20000, 4000,
 dy                                  = 60000, 20000, 4000,
 p_top_requested                     = 5000
 grid_id                             = 1,     2,     3,
 parent_id                           = 0,     1,     2,
 i_parent_start                      = 0,     41,    17,
 j_parent_start                      = 0,     15,    33,
 parent_grid_ratio                   = 1,     3,     5,
 parent_time_step_ratio              = 1,     3,     5,
 feedback                            = 1,
 smooth_option                       = 0
 /

 &physics
 mp_physics                          = 3,     3,     3,
 ra_lw_physics                       = 1,     1,     1,
 ra_sw_physics                       = 1,     1,     1,
 radt                                = 30,    30,    30,
 sf_sfclay_physics                   = 1,     1,     1,
 sf_surface_physics                  = 1,     1,     1,
 bl_pbl_physics                      = 1,     1,     1,
 bldt                                = 0,     0,     0,
 cu_physics                          = 1,     1,     0,
 cudt                                = 5,     5,     5,
 isfflx                              = 1,
 ifsnow                              = 0,
 icloud                              = 1,
 surface_input_source                = 1,
 num_soil_layers                     = 5,
 mp_zero_out                         = 0,
 maxiens                             = 1,
 maxens                              = 3,
 maxens2                             = 3,
 maxens3                             = 16,
 ensdim                              = 144,
 /

 &fdda
 /

 &dynamics
 dyn_opt                             = 102,
 diff_opt                            = 0,
 km_opt                              = 0,
 damp_opt                            = 0,
 base_temp                           = 290.
 zdamp                               = 4000.,  4000.,  4000.,
 dampcoef                            = 0.2,    0.2,    0.2
 khdif                               = 0,      0,      0,
 kvdif                               = 0,      0,      0,
 smdiv                               = 0.1,    0.1,    0.1,
 emdiv                               = 0.01,   0.01,   0.01,
 epssm                               = 0.1,    0.1,    0.1
 time_step_sound                     = 4,      4,      4,
 h_mom_adv_order                     = 5,      5,      5,
 v_mom_adv_order                     = 3,      3,      3,
 h_sca_adv_order                     = 5,      5,      5,
 v_sca_adv_order                     = 3,      3,      3,
 w_damping                           = 1,
 non_hydrostatic                     = .true.,.true., .true.,
 /

 &bdy_control
 spec_bdy_width                      = 5,
 spec_zone                           = 1,
 relax_zone                          = 4,
 specified                           = .true., .false.,.false.,
 nested                              = .false., .true., .true.,
 /

 &grib2
 /

 &namelist_quilt
 nio_tasks_per_group = 0,
 nio_groups = 1,
 /

 &perturbation
 check_u = .true.,
 check_v = .true.,
 check_w = .true.,
 check_ph = .true.,
 check_t = .true.,
 check_mu = .true.,
 check_moist = .true.,
 /
