 &time_control
 run_days                            = 0,
 run_hours                           = 3,
 run_minutes                         = 0,
 run_seconds                         = 0,
 start_year                          = 2008, 2000, 2000,
 start_month                         = 12,   01,   01,
 start_day                           = 23,   24,   24,
 start_hour                          = 12,   12,   12,
 start_minute                        = 00,   00,   00,
 start_second                        = 00,   00,   00,
 end_year                            = 2008, 2000, 2000,
 end_month                           = 12,   01,   01,
 end_day                             = 23,   25,   25,
 end_hour                            = 15,   12,   12,
 end_minute                          = 00,   00,   00,
 end_second                          = 00,   00,   00,
 interval_seconds                    = 10800
 input_from_file                     = .true.,.true.,.true.,
 history_interval                    = 180,  60,   60,
 frames_per_outfile                  = 1000, 1000, 1000,
 restart                             = .false.,
 restart_interval                    = 5000,
 io_form_history                     = 2
 io_form_restart                     = 2
 io_form_input                       = 2
 io_form_boundary                    = 2
 debug_level                         = 0
 /
 iofields_filename                   ="plus.io_config",
 ignore_iofields_warning             =.true.,

 &domains
 time_step                           = 360,
 time_step_fract_num                 = 0,
 time_step_fract_den                 = 1,
 max_dom                             = 1,
 e_we                                = 70,    112,   94,
 e_sn                                = 60,    97,    91,
 e_vert                              = 35,    28,    28,
 p_top_requested                     = 5000,
 num_metgrid_levels                  = 27,
 num_metgrid_soil_levels             = 4,
 dx                                  = 90000, 10000,  3333.33,
 dy                                  = 90000, 10000,  3333.33,
 grid_id                             = 1,     2,     3,
 parent_id                           = 0,     1,     2,
 i_parent_start                      = 1,     31,    30,
 j_parent_start                      = 1,     17,    30,
 parent_grid_ratio                   = 1,     3,     3,
 parent_time_step_ratio              = 1,     3,     3,
 feedback                            = 1,
 smooth_option                       = 0
 /

 &physics
 mp_physics                          = 98,     3,     3,
 ra_lw_physics                       = 0,     1,     1,
 ra_sw_physics                       = 0,     1,     1,
 radt                                = 30,    30,    30,
 sf_sfclay_physics                   = 0,     1,     1,
 sf_surface_physics                  = 1,     2,     2,
 bl_pbl_physics                      = 98,     1,     1,
 bldt                                = 0,     0,     0,
 cu_physics                          = 98,     1,     0,
 cudt                                = 5,     5,     5,
 isfflx                              = 1,
 ifsnow                              = 0,
 icloud                              = 0,
 surface_input_source                = 1,
 num_soil_layers                     = 4,
 sf_urban_physics                    = 0,     0,     0,
 maxiens                             = 1,
 maxens                              = 3,
 maxens2                             = 3,
 maxens3                             = 16,
 ensdim                              = 144,
 /

 &fdda
 /

 &dynamics
 dyn_opt                             = 102,
 w_damping                           = 0,
 diff_opt                            = 1,
 km_opt                              = 4,
 diff_6th_opt                        = 0,      0,      0,
 diff_6th_factor                     = 0.12,   0.12,   0.12,
 base_temp                           = 290.
 damp_opt                            = 0,
 zdamp                               = 5000.,  5000.,  5000.,
 dampcoef                            = 0.2,    0.2,    0.2
 khdif                               = 0,      0,      0,
 kvdif                               = 0,      0,      0,
 non_hydrostatic                     = .true., .true., .true.,
 moist_adv_opt                       = 1,      1,      1,     
 scalar_adv_opt                      = 1,      1,      1,     
 use_baseparam_fr_nml                = .t.,
 /

 &bdy_control
 spec_bdy_width                      = 5,
 spec_zone                           = 1,
 relax_zone                          = 4,
 specified                           = .true., .false.,.false.,
 nested                              = .false., .true., .true.,
 /

 &grib2
 /

 &namelist_quilt
 nio_tasks_per_group = 0,
 nio_groups = 1,
 /

 &perturbation
 check_TL = .true.
 check_AD = .true.
 check_u = .true.
 check_v = .true.
 check_w = .true.
 check_ph = .true.
 check_t = .true.
 check_mu = .true.
 check_moist = .true.
 /
