 &time_control
 run_days                            = 0,
 run_hours                           = 12,
 run_minutes                         = 0,
 run_seconds                         = 0,
 start_year                          = 2001, 2001, 2001,
 start_month                         = 06,   06,   06,
 start_day                           = 11,   11,   11,
 start_hour                          = 12,   12,   12,
 start_minute                        = 00,   00,   00,
 start_second                        = 00,   00,   00,
 end_year                            = 2001, 2001, 2001,
 end_month                           = 06,   06,   06,
 end_day                             = 12,   12,   12,
 end_hour                            = 12,   12,   12,
 end_minute                          = 00,   00,   00,
 end_second                          = 00,   00,   00,
 interval_seconds                    = 10800
 input_from_file                     = .true.,.false.,.false.,
 history_interval                    = 180,  60,   60,
 frames_per_outfile                  = 1000, 1000, 1000,
 restart                             = .false.,
 restart_interval                    = 5000,
 auxinput5_interval_m                = 60, 60, 60
 frames_per_emissfile                = 36
 io_style_emissions                  = 1
 io_form_history                     = 2
 io_form_restart                     = 2
 io_form_input                       = 2
 io_form_boundary                    = 2
 io_form_auxinput4                   = 2
 io_form_auxinput5                   = 2
 debug_level                         = 0
 /

 &domains
 time_step                           = 60,
 time_step_fract_num                 = 0,
 time_step_fract_den                 = 1,
 max_dom                             = 1,
 s_we                                = 1,     1,     1,
 e_we                                = 91,    112,   94,
 s_sn                                = 1,     1,     1,
 e_sn                                = 82,    97,    91,
 s_vert                              = 1,     1,     1,
 e_vert                              = 28,    28,    28,
 num_metgrid_levels                  = 27
 dx                                  = 10000,  3333,  1111,
 dy                                  = 10000,  3333,  1111,
 grid_id                             = 1,     2,     3,
 parent_id                           = 0,     1,     2,
 i_parent_start                      = 0,     30,    30,
 j_parent_start                      = 0,     20,    30,
 parent_grid_ratio                   = 1,     3,     3,
 parent_time_step_ratio              = 1,     3,     3,
 feedback                            = 1,
 smooth_option                       = 0
 /

 &physics
 mp_physics                          = 2,     2,     2,
 ra_lw_physics                       = 1,     1,     1,
 ra_sw_physics                       = 1,     1,     1,
 radt                                = 10,    10,    10,
 sf_sfclay_physics                   = 1,     1,     1,
 sf_surface_physics                  = 2,     2,     2,
 bl_pbl_physics                      = 1,     1,     1,
 bldt                                = 0,     0,     0,
 cu_physics                          = 1,     1,     0,
 cudt                                = 5,     5,     5,
 isfflx                              = 1,
 ifsnow                              = 0,
 icloud                              = 1,
 surface_input_source                = 1,
 num_soil_layers                     = 4,
 ucmcall                             = 0,
 mp_zero_out                         = 0,
 maxiens                             = 1,
 maxens                              = 3,
 maxens2                             = 3,
 maxens3                             = 16,
 ensdim                              = 144,
 kemit                               = 19,
 chem_opt                            =  0,    0,     0,
 bioemdt                             = 30,   30,    30,
 photdt                              = 30,   30,    30,
 chemdt                              = 1.0, 0.8333333, 0.3333333
 cu_rad_feedback                     = .false.,.false.,.false.,
 /

 &fdda
 /

 &dynamics
 w_damping                           = 0,
 diff_opt                            = 1,
 km_opt                              = 4,
 base_temp                           = 290.
 diff_6th_opt                        = 0,
 diff_6th_factor                     = 0.12,
 khdif                               = 0,      0,      0,
 kvdif                               = 0,      0,      0,
 chem_in_opt                         = 1,      1,      1,
 phot_opt                            = 1,      1,      1,
 drydep_opt                          = 1,      1,      1,
 bio_emiss_opt                       = 2,      2,      2,
 gas_bc_opt                          = 1,      1,      1,
 gas_ic_opt                          = 1,      1,      1,
 aer_bc_opt                          = 1,      1,      1,
 aer_ic_opt                          = 1,      1,      1,
 non_hydrostatic                     = .true., .true., .true.,
 pd_moist                            = .false., .false., .false.,
 pd_scalar                           = .false., .false., .false.,
 pd_chem                             = .false., .false., .false.,
 /

 &bdy_control
 spec_bdy_width                      = 5,
 spec_zone                           = 1,
 relax_zone                          = 4,
 specified                           = .true., .false.,.false.,
 nested                              = .false., .true., .true.,
 have_bcs_chem                       = .false.,.false.,.false.,
 /

 &grib2
 /

 &namelist_quilt
 nio_tasks_per_group = 0,
 nio_groups = 1,
 /
