 &time_control
 run_days                            = 0,
 run_hours                           = 6,
 run_minutes                         = 0,
 run_seconds                         = 0,
 start_year                          = 2008, 2008, 0001,
 start_month                         = 02,   02,   01,
 start_day                           = 05,   05,   01,
 start_hour                          = 12,   12,   00,
 start_minute                        = 00,   00,   00,
 start_second                        = 00,   00,   00,
 end_year                            = 2008, 2008, 0010,
 end_month                           = 02,   02,   01,
 end_day                             = 05,   05,   01,
 end_hour                            = 18,   12,   00,
 end_minute                          = 00,   06,   00,
 end_second                          = 00,   00,   00,
 history_interval                    = 9999,   30,   30,
 interval_seconds                    = 10800
 frames_per_outfile                  = 1,    1,    100,
 restart                             = .false.,
 input_from_file                     = .true., .true., .true., 
 restart_interval_h                  = 1120,
 io_form_history                     = 2
 io_form_restart                     = 2
 io_form_input                       = 2
 io_form_boundary                    = 2
 debug_level                         = -300
 /
 iofields_filename                   = "plus.io_config",
 ignore_iofields_warning             = .true.,
 io_form_auxhist8                    = 2,
 auxhist8_interval_h                 = 1,
 frames_per_auxhist8                 = 1,
 io_form_auxhist7                    = 2,
 auxhist7_interval_h                 = 2,
 frames_per_auxhist7                 = 1,

 &domains
 time_step                           = 720
 time_step_fract_num                 = 0
 time_step_fract_den                 = 11
 max_dom                             = 1,
 e_we                                = 45,    112,    41,
 e_sn                                = 30,     97,    81,
 e_vert                              = 41,     41,    41,
 p_top_requested                     = 5000,
 num_metgrid_levels                  = 27,
 num_metgrid_soil_levels             = 4,
 dx                                  = 120000, 20000, 4000,
 dy                                  = 120000, 20000, 4000,
 p_top_requested                     = 5000
 grid_id                             = 1,     2,     3,
 parent_id                           = 0,     1,     2,
 i_parent_start                      = 0,     41,    17,
 j_parent_start                      = 0,     15,    33,
 parent_grid_ratio                   = 1,     3,     5,
 parent_time_step_ratio              = 1,     3,     5,
 feedback                            = 1,
 smooth_option                       = 0
 /

 &physics
 mp_physics                          = 0,     3,     3,
 ra_lw_physics                       = 0,     1,     1,
 ra_sw_physics                       = 0,     1,     1,
 radt                                = 30,    30,    30,
 sf_sfclay_physics                   = 0,     1,     1,
 sf_surface_physics                  = 1,     1,     1,
 bl_pbl_physics                      = 0,     1,     1,
 bldt                                = 0,     0,     0,
 cu_physics                          = 0,     1,     0,
 cudt                                = 5,     5,     5,
 isfflx                              = 1,
 ifsnow                              = 0,
 icloud                              = 0,
 surface_input_source                = 1,
 num_soil_layers                     = 5,
 mp_zero_out                         = 0,
 maxiens                             = 1,
 maxens                              = 3,
 maxens2                             = 3,
 maxens3                             = 16,
 ensdim                              = 144,
 /

 &fdda
 /

 &dynamics
 !rk_ord=2
 sw_call_advance_all                          = .false.
 sw_call_spec_bdyupdate_all                   = .false.
 sw_call_zero_bdytend                         = .true.
 sw_call_zero_pole                            = .true.
 sw_call_rk_step_prep                         = .true.
 sw_call_rk_phys_bc_dry_1                     = .true.
 sw_call_set_physical_bc3d                    = .true.
 sw_call_pole_point_bc                        = .true.
 sw_call_first_rk_step_part1                  = .false.
 sw_call_first_rk_step_part2                  = .true.
 sw_call_rk_tendency                          = .true.
 sw_call_relax_bdy_dry                        = .true.
 sw_call_rk_addtend_dry                       = .true.
 sw_call_spec_bdy_dry                         = .true.
 sw_call_small_step_prep                      = .true.
 sw_call_calc_p_rho                           = .true.
 sw_call_calc_coef_w                          = .true.
 sw_call_set_physical_bc2d                    = .true.
 sw_call_advance_uv                           = .true.
 sw_call_pxft                                 = .true.
 sw_call_spec_bdyupdate                       = .true.
 sw_call_advance_mu_t                         = .true.
 sw_call_advance_w                            = .true.
 sw_call_sumflux                              = .true.
 sw_call_spec_bdyupdate_ph                    = .true.
 sw_call_zero_grad_bdy                        = .true.
 sw_call_calc_mu_uv_1                         = .true.
 sw_call_small_step_finish                    = .true.
 sw_call_rk_update_scalar_pd                  = .true.
 sw_call_rk_scalar_tend                       = .true.
 sw_call_relax_bdy_scalar                     = .true.
 sw_call_spec_bdy_scalar                      = .true.
 sw_call_rk_update_scalar                     = .true.
 sw_call_flow_dep_bdy                         = .true.
 sw_call_bound_tke                            = .true.
 sw_call_flow_dep_bdy_chem                    = .true.
 sw_call_flow_dep_bdy_tracer                  = .true.
 sw_call_calc_p_rho_phi                       = .true.
 sw_call_couple_scalars_for_filter            = .true.
 sw_call_uncouple_scalars_for_filter          = .true.
 sw_call_rk_phys_bc_dry_2                     = .true.
 sw_call_diagnose_w                           = .true.
 sw_call_WRFU_ALARMGET                        = .true.
 sw_call_domain_clock_get                     = .true.
 sw_call_WRFU_TimeIntervalSet                 = .true.
 sw_call_zero_avgflx                          = .true.
 sw_call_upd_avgflx                           = .true.
 sw_call_advance_ppt                          = .true.
 sw_call_moist_physics_prep_em                = .true.
 sw_call_microphysics_driver                  = .true.
 sw_call_microphysics_zero_outb               = .true.
 sw_call_microphysics_zero_outa               = .true.
 sw_call_moist_physics_finish_em              = .true.
 sw_call_set_phys_bc_dry_2                    = .true.
 sw_call_set_w_surface                        = .true.
 sw_call_diagnostic_output_calc               = .false.
 sw_call_rk_scalar_tend_moist                 = .true.
 sw_call_relax_bdy_scalar_moist               = .true.
 sw_call_spec_bdy_scalar_moist                = .true.
 sw_call_rk_update_scalar_moist               = .true.
 sw_call_flow_dep_bdy_moist                   = .true.
 sw_call_rk_update_scalar_pd_moist            = .true.
 dyn_opt                             = 102,
 diff_opt                            = 1,
 km_opt                              = 2,
 diff_6th_opt                        = 1,      2,      0,
 diff_6th_factor                     = 0.12,   0.12,   0.12,
 damp_opt                            = 0,
 base_temp                           = 290.
 zdamp                               = 4000.,  4000.,  4000.,
 dampcoef                            = 0.2,    0.2,    0.2
 khdif                               = 1,      0,      0,
 kvdif                               = 1,      0,      0,
 smdiv                               = 0.1,    0.1,    0.1,
 emdiv                               = 0.01,   0.01,   0.01,
 epssm                               = 0.1,    0.1,    0.1
 time_step_sound                     = 4,      4,      4,
 h_mom_adv_order                     = 5,      5,      5,
 v_mom_adv_order                     = 3,      3,      3,
 h_sca_adv_order                     = 5,      5,      5,
 v_sca_adv_order                     = 3,      3,      3,
 w_damping                           = 1,
 non_hydrostatic                     = .true.,.true., .true.,
 moist_adv_opt                       = 2,      1,      1,     
 scalar_adv_opt                      = 2,      1,      1,     
 tke_adv_opt                         = 2,      1,      1,     
 chem_adv_opt                        = 2,      1,      1,     
 tracer_adv_opt                      = 2,      1,      1,     
 sfs_opt                             = 0,
 tke_drag_coefficient       = 1,      1,      1,     
 m_opt                      = 0,      1,      1,     
 mix_full_fields            = .true., .true., .true.,
 mix_isotropic              = 0,      1,      1,     
/

 &bdy_control
 spec_bdy_width                      = 5,
 spec_zone                           = 1,
 relax_zone                          = 4,
 specified                           = .true., .false.,.false.,
 nested                              = .false., .true., .true.,
 /

 &grib2
 /

 &namelist_quilt
 nio_tasks_per_group = 0,
 nio_groups = 1,
 /

 &perturbation
 trajectory_io=.true.,
 check_TL = .false.
 check_AD = .true.
 check_u = .true.
 check_v = .true.
 check_w = .true.
 check_ph = .true.
 check_t = .true.
 check_mu = .true.
 check_moist = .true.
 /
