 &time_control
 run_days                            = 0,
 run_hours                           = 12,
 run_minutes                         = 0,
 run_seconds                         = 0,
 start_year                          = 2006, 2999, 2999,
 start_month                         = 04,   06,   06,
 start_day                           = 06,   11,   11,
 start_hour                          = 12,   12,   12,
 start_minute                        = 00,   00,   00,
 start_second                        = 00,   00,   00,
 end_year                            = 2006, 2999, 2999,
 end_month                           = 04,   06,   06,
 end_day                             = 07,   12,   12,
 end_hour                            = 00,   12,   12,
 end_minute                          = 00,   00,   00,
 end_second                          = 00,   00,   00,
 interval_seconds                    = 10800
 input_from_file                     = .true.,.false.,.false.,
 history_interval                    = 30,  60,   60,
 frames_per_outfile                  = 19992, 1000, 1000,
 restart                             = .false.,
 restart_interval                    = 5000,
 auxinput5_interval_m                = 0, 60, 60
 io_form_history                     = 2
 io_form_restart                     = 2
 io_form_input                       = 2
 io_form_boundary                    = 2
 io_form_auxinput4                   = 0
 io_form_auxinput5                   = 0
 auxinput1_inname                     = "wrf_real_input_em.d<domain>.<date>"
 debug_level                         = 00
 /

 &domains
 time_step                           = 240,
 time_step_fract_num                 = 0,
 time_step_fract_den                 = 1,
 max_dom                             = 1,
 s_we                                = 1,     1,     1,
 e_we                                = 40,    112,   94,
 s_sn                                = 1,     1,     1,
 e_sn                                = 40,    97,    91,
 s_vert                              = 1,     1,     1,
 e_vert                              = 20,    28,    28,
 dx                                  = 60000,  3333,  1111,
 dy                                  = 60000,  3333,  1111,
 grid_id                             = 1,     2,     3,
 parent_id                           = 0,     1,     2,
 i_parent_start                      = 0,     30,    30,
 j_parent_start                      = 0,     20,    30,
 parent_grid_ratio                   = 1,     3,     3,
 parent_time_step_ratio              = 1,     3,     3,
 feedback                            = 1,
 smooth_option                       = 0
 /

 &physics
 mp_physics                          = 2,     2,     2,
 ra_lw_physics                       = 1,     1,     1,
 ra_sw_physics                       = 2,     1,     1,
 radt                                = 30,    10,    10,
 sf_sfclay_physics                   = 1,     1,     1,
 sf_surface_physics                  = 2,     2,     2,
 bl_pbl_physics                      = 1,     1,     1,
 bldt                                = 1,     0,     0,
 cu_physics                          = 3,     1,     0,
 cudt                                = 1,     5,     5,
 isfflx                              = 1,
 ifsnow                              = 1,
 icloud                              = 1,
 surface_input_source                = 1,
 num_soil_layers                     = 4,
 ucmcall                             = 0,
 mp_zero_out                         = 2,
 mp_zero_out_thresh                  = 1.e-8,
 maxiens                             = 1,
 maxens                              = 3,
 maxens2                             = 3,
 maxens3                             = 16,
 ensdim                              = 144,
 cu_rad_feedback                     = .false.,
 /

 &fdda
 /

 &dynamics
 dyn_opt                             = 2,
 rk_ord                              = 3,
 w_damping                           = 1,
 diff_opt                            = 1,
 km_opt                              = 4,
 diff_6th_opt                        = 0,
 diff_6th_factor                     = 0.12,
 base_temp                           = 290.
 damp_opt                            = 0,
 zdamp                               = 5000.,  5000.,  5000.,
 dampcoef                            = 0.01,   0.01,   0.01
 khdif                               = 0,      0,      0,
 kvdif                               = 0,      0,      0,
 smdiv                               = 0.1,    0.1,    0.1,
 emdiv                               = 0.01,   0.01,   0.01,
 epssm                               = 0.1,    0.1,    0.1
 non_hydrostatic                     = .true., .true., .true.,
 time_step_sound                     = 4,      4,      4,
 pd_moist                            = .false., .false., .false.,
 pd_scalar                           = .false., .false., .false.,
 h_mom_adv_order                     = 5,      5,      5,
 v_mom_adv_order                     = 3,      3,      3,
 h_sca_adv_order                     = 5,      5,      5,
 v_sca_adv_order                     = 3,      3,      3,
 /

 &bdy_control
 spec_bdy_width                      = 5,
 spec_zone                           = 1,
 relax_zone                          = 4,
 specified                           = .true., .false.,.false.,
 periodic_x                          = .false.,.false.,.false.,
 symmetric_xs                        = .false.,.false.,.false.,
 symmetric_xe                        = .false.,.false.,.false.,
 open_xs                             = .false.,.false.,.false.,
 open_xe                             = .false.,.false.,.false.,
 periodic_y                          = .false.,.false.,.false.,
 symmetric_ys                        = .false.,.false.,.false.,
 symmetric_ye                        = .false.,.false.,.false.,
 open_ys                             = .false.,.false.,.false.,
 open_ye                             = .false.,.false.,.false.,
 nested                              = .false., .true., .true.,
 /

 &grib2
 /

 &chem
 kemit                               = 19,
 chem_opt                            = 2,
 bioemdt                             = 30,
 photdt                              = 30,
 chemdt                              = 1.,
 frames_per_emissfile                = 36
 io_style_emissions                  = 1
 emiss_inpt_opt                      = 1,
 chem_in_opt                         = 0,
 phot_opt                            = 1,
 drydep_opt                          = 1,
 bio_emiss_opt                       = 1,
 gas_bc_opt                          = 1,
 gas_ic_opt                          = 1,
 aer_bc_opt                          = 1,
 aer_ic_opt                          = 1,
 gaschem_onoff                       = 1,
 aerchem_onoff                       = 1,
 wetscav_onoff                       = 0,
 cldchem_onoff                       = 0,
 vertmix_onoff                       = 1,
 chem_conv_tr                        = 1,
 aer_ra_feedback                     = 0,
 have_bcs_chem                       = .false.,
 /

 &namelist_quilt
 nio_tasks_per_group = 0,
 nio_groups = 1,
 /
