 &time_control
 run_days                            = 0,
 run_hours                           = 2,
 run_minutes                         = 0,
 run_seconds                         = 0,
 start_year                          = 2000, 2000, 2000,
 start_month                         = 01,   01,   01,
 start_day                           = 24,   24,   24,
 start_hour                          = 12,   12,   12,
 end_year                            = 2000, 2000, 2000,
 end_month                           = 01,   01,   01,
 end_day                             = 25,   25,   25,
 end_hour                            = 12,   12,   12,
 interval_seconds                    = 21600
 input_from_file                     = .true.,.true.,.true.,
 history_interval                    = 180,  60,   60,
 frames_per_outfile                  = 1000, 1000, 1000,
 restart                             = .false.,
 restart_interval                    = 7200,
 io_form_history                     = 2
 io_form_restart                     = 2
 io_form_input                       = 2
 io_form_boundary                    = 2
 io_form_auxhist23                   = 2
 auxhist23_interval                  = 30,   15,    30
 frames_per_auxhist23                = 1
 auxhist23_outname                   = "PLEVS_d<domain>_<date>"
 /

 &diags
 p_lev_diags                         = 1
 num_press_levels                    = 4
 press_levels                        = 85000, 70000, 50000, 25000
 use_tot_or_hyd_p                    = 1
 /

 &domains
 time_step                           = 180,
 time_step_fract_num                 = 0,
 time_step_fract_den                 = 1,
 max_dom                             = 2,
 e_we                                = 74,    31,    94,
 e_sn                                = 61,    31,    91,
 e_vert                              = 33,    33,    33,
 p_top_requested                     = 5000,
 num_metgrid_levels                  = 32,
 num_metgrid_soil_levels             = 4,
 dx                                  = 30000,
 dy                                  = 30000,
 grid_id                             = 1,     2,     3,
 parent_id                           = 0,     1,     2,
 i_parent_start                      = 1,     31,    30,
 j_parent_start                      = 1,     17,    30,
 parent_grid_ratio                   = 1,     3,     3,
 parent_time_step_ratio              = 1,     3,     3,
 feedback                            = 1,
 smooth_option                       = 0
 /

 &physics
 mp_physics                          = 3,     3,     3,
 ra_lw_physics                       = 1,     1,     1,
 ra_sw_physics                       = 1,     1,     1,
 radt                                = 30,    30,    30,
 sf_sfclay_physics                   = 1,     1,     1,
 sf_surface_physics                  = 2,     2,     2,
 bl_pbl_physics                      = 1,     1,     1,
 bldt                                = 0,     0,     0,
 cu_physics                          = 1,     1,     0,
 cudt                                = 5,     5,     5,
 isfflx                              = 1,
 ifsnow                              = 0,
 icloud                              = 1,
 surface_input_source                = 3,
 num_land_cat                        = 21,
 sf_urban_physics                    = 0,     0,     0,
 maxiens                             = 1,
 maxens                              = 3,
 maxens2                             = 3,
 maxens3                             = 16,
 ensdim                              = 144,
 /

 &fdda
 /

 &dynamics
 hybrid_opt                          = 2, 
 w_damping                           = 0,
 diff_opt                            = 1,      1,      1,
 km_opt                              = 4,      4,      4,
 diff_6th_opt                        = 0,      0,      0,
 diff_6th_factor                     = 0.12,   0.12,   0.12,
 base_temp                           = 290.
 damp_opt                            = 3,
 zdamp                               = 5000.,  5000.,  5000.,
 dampcoef                            = 0.2,    0.2,    0.2
 khdif                               = 0,      0,      0,
 kvdif                               = 0,      0,      0,
 non_hydrostatic                     = .true., .true., .true.,
 moist_adv_opt                       = 1,      1,      1,     
 scalar_adv_opt                      = 1,      1,      1,     
 /

 &bdy_control
 spec_bdy_width                      = 5,
 specified                           = .true.,
 /

 &grib2
 /

 &namelist_quilt
 nio_tasks_per_group = 0,
 nio_groups = 1,
 /

 &dfi_control
 dfi_opt                             = 0
 dfi_nfilter                         = 7
 dfi_write_filtered_input            = .false.
 dfi_write_dfi_history               = .false.
 dfi_cutoff_seconds                  = 3600  
 dfi_time_dim                        = 1000 
 dfi_bckstop_year                    = 2000
 dfi_bckstop_month                   = 01  
 dfi_bckstop_day                     = 24  
 dfi_bckstop_hour                    = 11  
 dfi_bckstop_minute                  = 00  
 dfi_bckstop_second                  = 00  
 dfi_fwdstop_year                    = 2000
 dfi_fwdstop_month                   = 01  
 dfi_fwdstop_day                     = 24  
 dfi_fwdstop_hour                    = 12  
 dfi_fwdstop_minute                  = 30  
 dfi_fwdstop_second                  = 00  
 /
