&wrfvar1
var4d=true,
var4d_lbc=true,
var4d_bin=3600,
print_detail_outerloop=true,
print_detail_grad=false,
/
&wrfvar2
/
&wrfvar3
ob_format=1,
/
&wrfvar4
use_synopobs=true,
use_shipsobs=true,
use_metarobs=true,
use_soundobs=true,
use_pilotobs=true,
use_airepobs=true,
use_geoamvobs=true,
use_polaramvobs=true,
use_bogusobs=true,
use_buoyobs=true,
use_profilerobs=true,
use_satemobs=true,
use_gpspwobs=true,
use_gpsrefobs=true,
use_qscatobs=true,
use_amsuaobs=true
use_amsubobs=true,
/
&wrfvar5
check_max_iv=true,
/
&wrfvar6
max_ext_its=1,
ntmax=50,
/
&wrfvar7
cv_options=3,
/
&wrfvar8
/
&wrfvar9
/
&wrfvar10
test_transforms=true,
/
&wrfvar11
cv_options_hum=1,
check_rh=0,
sfc_assi_options=1,
calculate_cg_cost_fn=true,
/
&wrfvar12
/
&wrfvar13
/
&wrfvar14
 rtminit_nsensor=6,
 rtminit_platform=1,1,1,1,1,1,
 rtminit_satid=15,16,18,15,16,17,
 rtminit_sensor=3,3,3,4,4,4,
 thinning_mesh=120.0,120.0,120.0,120.0,120.0,120.0,
 thinning=true,
 qc_rad=true,
 write_iv_rad_ascii=false,
 write_oa_rad_ascii=true,
 rtm_option=2,
 only_sea_rad=false,
 use_varbc=true,
 use_crtm_kmatrix=true,
/
&wrfvar15
/
&wrfvar16
/
&wrfvar17
/
&wrfvar18
analysis_date="2008-02-05_21:00:00.0000",
/
&wrfvar19
/
&wrfvar20
/
&wrfvar21
time_window_min="2008-02-05_21:00:00.0000",
/
&wrfvar22
time_window_max="2008-02-06_03:00:00.0000",
/
&wrfvar23
/
&time_control
run_hours=6,
start_year=2008,
start_month=02,
start_day=05,
start_hour=21,
end_year=2008,
end_month=02,
end_day=06,
end_hour=03,
interval_seconds=21600,
debug_level=0,
/
&domains
time_step=720,
e_we=45,
e_sn=30,
e_vert=41,
p_top_requested=5000,
interp_type=1,
t_extrap_type=1,
dx=120000,
dy=120000,
smooth_option=0,
nproc_x=0,
/
&fdda
/
&dfi_control
/
&tc
/
&physics
mp_physics=98,
ra_lw_physics=0,
ra_sw_physics=0,
radt=30,
sf_sfclay_physics=0,
sf_surface_physics=1,
bl_pbl_physics=98,
cu_physics=98,
cudt=5,
num_soil_layers=5,
mp_zero_out=2,
co2tf=0,
/
&scm
/
&dynamics
dyn_opt=102,
w_damping=1,
diff_opt=1,
km_opt=4,
dampcoef=0.01,
time_step_sound=4,
base_temp=290.0,
use_baseparam_fr_nml=true,
/
&bdy_control
specified=true,
real_data_init_type=3,
/
&grib2
/
&namelist_quilt
/
&perturbation
trajectory_io=true,
enable_identity=false,
jcdfi_use=true,
jcdfi_diag=1,
jcdfi_penalty=1000.0,
/
