 &time_control
 run_days                            = 0,
 run_hours                           = 18,
 run_minutes                         = 0,
 run_seconds                         = 0,
 start_year                          = 2012, 2012,
 start_month                         = 01, 01,
 start_day                           = 26, 26,
 start_hour                          = 00, 00,
 start_minute                        = 00, 00,
 start_second                        = 00, 00,
 end_year                            = 2012, 2012,
 end_month                           = 01, 01,
 end_day                             = 26, 28,
 end_hour                            = 18, 00,
 end_minute                          = 00, 00,
 end_second                          = 00, 00,
 interval_seconds                    = 21600
 input_from_file                     = .true.,.true.,.false.,
 history_interval                    = 360, 360, 360,
 frames_per_outfile                  = 1, 1, 1,
 restart                             = .false.,
 restart_interval                    = 1440,
 io_form_history                     = 2
 io_form_restart                     = 2
 io_form_input                       = 2
 io_form_boundary                    = 2
 debug_level                         = 0
 auxinput4_inname                    = "wrflowinp_d<domain>"
 auxinput4_interval                  = 360
 io_form_auxinput4                   = 2
 /

 &domains
 time_step                           = 120,
 time_step_fract_num                 = 0,
 time_step_fract_den                 = 1,
 max_dom                             = 1,
 e_we                                = 290,   202,   94,
 e_sn                                = 190,   202,    91,
 e_vert                              = 40,    40,    28,
 p_top_requested                     = 3000,
 num_metgrid_levels                  = 27,
 num_metgrid_soil_levels             = 4,
 dx                                  = 20000, 6000,  3333.33,
 dy                                  = 20000, 6000,  3333.33,
 grid_id                             = 1,     2,     3,
 parent_id                           = 0,     1,     2,
 i_parent_start                      = 1,     46,    30,
 j_parent_start                      = 1,     33,    30,
 parent_grid_ratio                   = 1,     3,     3,
 parent_time_step_ratio              = 1,     3,     3,
 feedback                            = 1,
 smooth_option                       = 0
 hypsometric_opt                     = 2,
 eta_levels                          = 1.00000 , 0.99269 , 0.98292 , 0.97018 , 0.95386 ,
                                       0.93376 , 0.90955 , 0.88093 , 0.84829 , 0.81202 ,
                                       0.77257 , 0.73044 , 0.68610 , 0.64010 , 0.59294 ,
                                       0.54514 , 0.49723 , 0.44967 , 0.40562 , 0.36486 ,
                                       0.32718 , 0.29241 , 0.26035 , 0.23083 , 0.20369 ,
                                       0.17878 , 0.15594 , 0.13505 , 0.11596 , 0.09855 ,
                                       0.08271 , 0.06833 , 0.05530 , 0.04353 , 0.03291 ,
                                       0.02336 , 0.01481 , 0.00716 , 0.00035 , 0.00000
 /

 &physics
 mp_physics                          = 4,     8,     8,
 ra_lw_physics                       = 1,     1,     1,
 ra_sw_physics                       = 2,     2,     2,
 radt                                = 20,    18,    18,
 sf_sfclay_physics                   = 1,     1,     1,
 sf_surface_physics                  = 2,     2,     2,
 bl_pbl_physics                      = 1,     1,     1,
 bldt                                = 0,     0,     0,
 cu_physics                          = 1,     0,     0,
 cudt                                = 5,     5,     5,
 isfflx                              = 1,
 ifsnow                              = 0,
 icloud                              = 1,
 surface_input_source                = 1,
 num_soil_layers                     = 4,
 sf_urban_physics                    = 0,
 maxiens                             = 1,
 maxens                              = 3,
 maxens2                             = 3,
 maxens3                             = 16,
 ensdim                              = 144,
 sst_update                          = 0,
 domain_lakedepth                    = 50,
 lakemodel                           = 1,
 lakeminalt                          = 5,
 NUM_LAND_CAT                        = 28, 
 /
 kfeta_trigger                       = 2,
 domain_lakedepth                    = 50,
 lakemodel                           = 1,
 lakeminalt                          = 5,

 &fdda
 /

 &dynamics
 w_damping                           = 1,
 diff_opt                            = 1,
 km_opt                              = 4,
 diff_6th_opt                        = 0,      0,      0,
 diff_6th_factor                     = 0.12,   0.12,   0.12,
 base_temp                           = 290.
 damp_opt                            = 3,
 zdamp                               = 5000.,  5000.,  5000.,
 dampcoef                            = 0.2,    0.2,    0.2
 khdif                               = 0,      0,      0,
 kvdif                               = 0,      0,      0,
 non_hydrostatic                     = .true., .true., .true.,
 moist_adv_opt                       = 1,      1,      1,     
 scalar_adv_opt                      = 1,      1,      1,     
 /

 &bdy_control
 spec_bdy_width                      = 5,
 spec_zone                           = 1,
 relax_zone                          = 4,
 specified                           = .true., .false.,.false.,
 nested                              = .false., .true., .true.,
 /

 &grib2
 /

 &namelist_quilt
 nio_tasks_per_group = 0,
 nio_groups = 1,
 /

