 &time_control
 run_days                            = 0,
 run_hours                           = 0
 run_minutes                         = 0,
 run_seconds                         = 540, 
 start_year                          = 2006, 2006, 2000,
 start_month                         = 12,   12,   01,
 start_day                           = 19,   19,   24,
 start_hour                          = 12,   12,   12,
 start_minute                        = 00,   00,   00,
 start_second                        = 00,   00,   00,
 end_year                            = 2006, 2006, 2000,
 end_month                           = 12,   12,   01,
 end_day                             = 20,   20,   25,
 end_hour                            = 12,   12,   12,
 end_minute                          = 00,   00,   00,
 end_second                          = 00,   00,   00,
 interval_seconds                    = 21600
 input_from_file                     = .true.,.true.,.true.,
 history_interval                    = 9,    9,    60,
 frames_per_outfile                  = 1000, 1000, 1000,
 restart                             = .false.,
 restart_interval                    = 720
 io_form_history                     = 2
 io_form_restart                     = 2
 io_form_input                       = 2
 io_form_boundary                    = 2
 debug_level                         = 0
 /

 &domains
 time_step                           = 180 
 time_step_fract_num                 = 0,
 time_step_fract_den                 = 1,
 max_dom                             = 2,
 e_we                                = 75,    88,    94,
 e_sn                                = 70,    79,    91,
 e_vert                              = 35,    45,    30,
 eta_levels(1:35)                    = 1., 0.993, 0.983, 0.97, 0.954, 0.934, 0.909, 0.88, 0.8406663, 0.8013327, 
                                       0.761999, 0.7226653, 0.6525755, 0.5877361, 0.5278192, 0.472514, 
                                       0.4215262, 0.3745775, 0.3314044, 0.2917579, 0.2554026, 0.2221162, 
                                       0.1916888, 0.1639222, 0.1386297, 0.1156351, 0.09525016, 0.07733481, 
                                       0.06158983, 0.04775231, 0.03559115, 0.02490328, 0.0155102, 0.007255059, 0.
 eta_levels(36:80)                   = 1.0000, 0.9946, 0.9875, 0.9789, 0.9685, 0.9562, 0.9413, 0.9238, 0.9037, 0.8813, 0.8514,
                                       0.8210, 0.7906, 0.7602, 0.7298, 0.6812, 0.6290, 0.5796, 0.5333, 0.4901, 0.4493, 0.4109,
                                       0.3746, 0.3412, 0.3098, 0.2802, 0.2524, 0.2267, 0.2028, 0.1803, 0.1593, 0.1398, 0.1219,
                                       0.1054, 0.0904, 0.0766, 0.0645, 0.0534, 0.0433, 0.0341, 0.0259, 0.0185, 0.0118, 0.0056, 0.    
 p_top_requested                     = 5000,
 num_metgrid_levels                  = 40
 num_metgrid_soil_levels             = 4,
 dx                                  = 30000, 10000,  3333.33,
 dy                                  = 30000, 10000,  3333.33,
 grid_id                             = 1,     2,     3,
 parent_id                           = 0,     1,     2,
 i_parent_start                      = 1,     25,    30,
 j_parent_start                      = 1,     22,    30,
 parent_grid_ratio                   = 1,     3,     3,
 parent_time_step_ratio              = 1,     3,     3,
 feedback                            = 0,
 smooth_option                       = 0,
 vert_refine_method                  = 0,     2,     2,
 /

 &physics
 mp_physics                          = 3,     3,     3,
 ra_lw_physics                       = 1,     1,     1, 
 ra_sw_physics                       = 1,     1,     1, 
 radt                                = 6,     6,     6, 
 sf_sfclay_physics                   = 4,     4,     4,
 sf_surface_physics                  = 1,     1,     1,
 bl_pbl_physics                      = 4,     4,     4,
 bldt                                = 0,     0,     0,
 cu_physics                          = 3,     3,     0,
 sf_urban_physics                    = 0,     0,     0,
 shcu_physics                        = 0,     0,     0,
 topo_shading                        = 0,     0,     0,
 cudt                                = 5,     5,     5,
 isfflx                              = 1,
 ifsnow                              = 0,
 icloud                              = 1,
 surface_input_source                = 3,
 num_soil_layers                     = 5,
 num_land_cat                        = 24,
 mp_zero_out                         = 0,
 maxiens                             = 1,
 maxens                              = 3,
 maxens2                             = 3,
 maxens3                             = 16,
 ensdim                              = 144,
 /

 &fdda
 /

 &dynamics
 w_damping                           = 0,
 diff_opt                            = 1,      1,      1,
 km_opt                              = 4,      4,      4,
 diff_6th_opt                        = 0,      0,      0,
 diff_6th_factor                     = 0.12,   0.12,   0.12,
 base_temp                           = 290.
 damp_opt                            = 3,
 zdamp                               = 5000.,  5000.,  5000.,
 dampcoef                            = 0.05,   0.05,   0.05
 khdif                               = 0,      0,      0,
 kvdif                               = 0,      0,      0,
 non_hydrostatic                     = .true., .true., .true.,
 moist_adv_opt                       = 2,      2,      2,      
 scalar_adv_opt                      = 2,      2,      2,     
 chem_adv_opt                        = 0,      0,      0,     
 tke_adv_opt                         = 0,      0,      0,     
 /

 &bdy_control
 spec_bdy_width                      = 10,
 spec_zone                           = 1,
 relax_zone                          = 9,
 spec_exp                            = 0.33
 specified                           = .true., .false.,.false.,
 nested                              = .false., .true., .true.,
 /

 &grib2
 /

 &namelist_quilt
 nio_tasks_per_group = 0,
 nio_groups = 1,
 /

 &dfi_control
 dfi_opt                             = 0
 dfi_nfilter                         = 7
 dfi_write_filtered_input            = .false.
 dfi_write_dfi_history               = .false.
 dfi_cutoff_seconds                  = 3600  
 dfi_time_dim                        = 1000 
 dfi_bckstop_year                    = 2000
 dfi_bckstop_month                   = 01  
 dfi_bckstop_day                     = 24  
 dfi_bckstop_hour                    = 11  
 dfi_bckstop_minute                  = 00  
 dfi_bckstop_second                  = 00  
 dfi_fwdstop_year                    = 2000
 dfi_fwdstop_month                   = 01  
 dfi_fwdstop_day                     = 24  
 dfi_fwdstop_hour                    = 12  
 dfi_fwdstop_minute                  = 30  
 dfi_fwdstop_second                  = 00  
 /

LSF_TIME=0:30
NQS_TIME=0:30:00
NUM_PROCESSORS=8
