 &time_control
 run_days                            = 0,
 run_hours                           = 0,
 run_minutes                         = 400,
 run_seconds                         = 0,
 start_year                          = 2007, 0001, 0001,
 start_month                         = 10,   01,   01,
 start_day                           = 18,   01,   01,
 start_hour                          = 12,   00,   00,
 start_minute                        = 00,   00,   00,
 start_second                        = 00,   00,   00,
 end_year                            = 2007, 0010, 0010,
 end_month                           = 10,   01,   01,
 end_day                             = 18,   01,   01,
 end_hour                            = 12,   00,   00,
 end_minute                          = 00,   00,   00,
 end_second                          = 00,   00,   00,
 history_interval                    = 400,   30,   30,
 frames_per_outfile                  = 100,  100,  100,
 restart                             = .false.,
 restart_interval_h                  = 1120,
 io_form_history                     = 2
 io_form_restart                     = 2
 io_form_input                       = 2
 io_form_boundary                    = 2
 debug_level                         = 0
 /

 &domains
 time_step                           = 2400
 time_step_fract_num                 = 00
 time_step_fract_den                 = 112
 max_dom                             = 1,
 s_we                                = 1,     1,     1,
 e_we                                = 65,     41,    41,
 s_sn                                = 1,     1,     1,
 e_sn                                = 33,     81,    81,
 s_vert                              = 1,     1,     1,
 e_vert                              = 41,    41,    41,
 num_metgrid_levels                  = 27
 dx                                  = 625373.288,20000, 4000,
 dy                                  = 625373.288,20000, 4000,
 p_top_requested                     = 5000
 grid_id                             = 1,     2,     3,
 parent_id                           = 0,     1,     2,
 i_parent_start                      = 0,     17,    17,
 j_parent_start                      = 0,     33,    33,
 parent_grid_ratio                   = 1,     5,     5,
 parent_time_step_ratio              = 1,     5,     5,
 feedback                            = 1,
 smooth_option                       = 00
 /

 &physics
 mp_physics                          = 3,     0,     0,
 ra_lw_physics                       = 1,     0,     0,
 ra_sw_physics                       = 1,     0,     0,
 radt                                = 30,    30,    30,
 sf_sfclay_physics                   = 1,     0,     0,
 sf_surface_physics                  = 1,     0,     0,
 bl_pbl_physics                      = 1,     0,     0,
 bldt                                = 0,     0,     0,
 cu_physics                          = 3,     0,     0,
 cudt                                = 0,     5,     5,
 isfflx                              = 1,
 ifsnow                              = 0,
 icloud                              = 1,
 surface_input_source                = 1,
 num_soil_layers                     = 5,
 ucmcall                             = 0,
 mp_zero_out                         = 0,
 maxiens                             = 1,
 maxens                              = 3,
 maxens2                             = 3,
 maxens3                             = 16,
 ensdim                              = 144,
 /

 &fdda
 /

 &dynamics
 rk_ord                              = 3,
 diff_opt                            = 0,
 km_opt                              = 0,
 damp_opt                            = 0,
 base_temp                           = 290.
 zdamp                               = 4000.,  4000.,  4000.,
 dampcoef                            = 0.2,    0.2,    0.2
 khdif                               = 0,      0,      0,
 kvdif                               = 0,      0,      0,
 smdiv                               = 0.1,    0.1,    0.1,
 emdiv                               = 0.01,   0.01,   0.01,
 epssm                               = 0.1,    0.1,    0.1
 non_hydrostatic                     = .true.,.true., .true.,
 time_step_sound                     = 4,      4,      4,
 h_mom_adv_order                     = 5,      5,      5,
 v_mom_adv_order                     = 3,      3,      3,
 h_sca_adv_order                     = 5,      5,      5,
 v_sca_adv_order                     = 3,      3,      3,
 polar_filter                        = 5,
 w_damping                           = 1,
 fft_filter_type                     = 1,
 /

 &bdy_control
 periodic_x                          = .true., .false.,.false.,
 symmetric_xs                        = .false.,.false.,.false.,
 symmetric_xe                        = .false.,.false.,.false.,
 open_xs                             = .false.,.false.,.false.,
 open_xe                             = .false.,.false.,.false.,
 periodic_y                          = .false.,.false.,.false.,
 symmetric_ys                        = .false.,.false.,.false.,
 symmetric_ye                        = .false.,.false.,.false.,
 open_ys                             = .false.,.false.,.false.,
 open_ye                             = .false.,.false.,.false.,
 nested                              = .false., .true., .true.,
 polar                               = .true. ,.false.,.false.,
 /

 &grib2
 /

 &namelist_quilt
 nio_tasks_per_group = 0,
 nio_groups = 1,
 /
