 &time_control
 run_days = 0,
 run_hours = 0,
 run_minutes = 0,
 run_seconds                         = 1800,
 start_year                          = 2000, 2000, 2000,
 start_month                         = 01,   01,   01,
 start_day                           = 24,   24,   24,
 start_hour                          = 12,   12,   12,
 start_minute                        = 00,   00,   00,
 start_second                        = 00,   00,   00,
 end_year                            = 2000, 2000, 2000,
 end_month                           = 01,   01,   01,
 end_day                             = 25,   25,   25,
 end_hour                            = 12,   12,   12,
 end_minute                          = 00,   00,   00,
 end_second                          = 00,   00,   00,
 interval_seconds                    = 21600
 input_from_file                     = .true.,.false.,.false.
 history_interval                    = 30,  60,   60,
 frames_per_outfile = 200, 1000, 1000,
 restart                             = .false.,
 restart_interval                    = 5000,
 io_form_history                     = 2
 io_form_restart                     = 2
 io_form_input                       = 2
 io_form_boundary                    = 2
 debug_level                         = 0
 /
 auxinput1_inname                    = "met_em.d<domain>.<date>"

 &domains
 time_step                           = 180,
 time_step_fract_num                 = 0,
 time_step_fract_den                 = 1,
 time_step_dfi                       = 60,
 max_dom                             = 1,
 s_we                                = 1,     1,     1,
 e_we                                = 74,    31,    31,
 s_sn                                = 1,     1,     1,
 e_sn                                = 61,    31,    31,
 s_vert                              = 1,     1,     1,
 e_vert                              = 30,    30,    30,
 p_top_requested                     = 5000,
 num_metgrid_levels                  = 26,
 num_metgrid_soil_levels             = 4,
 dx                                  = 30000, 10000,  3333,
 dy                                  = 30000, 10000,  3333,
 grid_id                             = 1,     2,     3,
 parent_id                           = 0,     1,     2,
 i_parent_start                      = 0,     31,    30,
 j_parent_start                      = 0,     17,    30,
 parent_grid_ratio                   = 1,     3,     3,
 parent_time_step_ratio              = 1,     3,     3,
 feedback                            = 1,
 smooth_option                       = 0
 use_adaptive_time_step              = .FALSE.
 step_to_output_time                 = .FALSE.
 /

 &physics
 mp_physics                          = 1,     1,     1,
 ra_lw_physics                       = 1,     1,     1,
 ra_sw_physics                       = 1,     1,     1,
 radt                                = 21,    21,    21,
 sf_sfclay_physics                   = 1,     1,     1,
 sf_surface_physics                  = 1,     1,     1,
 topo_wind                           = 1,     1,     1,
 bl_pbl_physics                      = 1,     1,     1,
 bldt                                = 0,     0,     0,
 cu_physics                          = 1,     1,     0,
 cudt                                = 5,     5,     5,
 sf_ocean_physics                    = 1,
 oml_hml0                            = 50,
 oml_gamma                           = 0.14
 slope_rad                           = 1,     1,     1,
 topo_shading                        = 0,     0,     0,
 isfflx                              = 1,
 ifsnow                              = 0,
 icloud                              = 1,
 surface_input_source                = 1,
 num_soil_layers                     = 5,
 num_land_cat                        = 28,
 mp_zero_out                         = 0,
 /

 &fdda
 /

 &dynamics
 w_damping                           = 0,
 diff_opt                            = 1,
 km_opt                              = 4,
 diff_6th_opt                        = 0,      0,      0,
 diff_6th_factor                     = 0.12,   0.12,   0.12,
 base_temp                           = 290.
 damp_opt                            = 0,
 zdamp                               = 5000.,  5000.,  5000.,
 dampcoef                            = 0.05,   0.05,   0.05
 khdif                               = 0,      0,      0,
 kvdif                               = 0,      0,      0,
 non_hydrostatic                     = .true., .true., .true.,
 moist_adv_opt                       = 1,      1,      1,      
 scalar_adv_opt                      = 1,      1,      1,     
 chem_adv_opt                        = 0,      0,      0,     
 tke_adv_opt                         = 0,      0,      0,     
 /

 &bdy_control
 spec_bdy_width                      = 5,
 spec_zone                           = 1,
 relax_zone                          = 4,
 specified                           = .true., .false.,.false.,
 nested                              = .false., .true., .true.,
 /

 &grib2
 /

 &namelist_quilt
 nio_tasks_per_group = 0,
 nio_groups = 1,
 /

 &dfi_control
 dfi_opt                             = 0
 dfi_nfilter                         = 7
 dfi_write_filtered_input            = .false.
 dfi_write_dfi_history               = .false.
 dfi_cutoff_seconds                  = 3600  
 dfi_time_dim                        = 1000 
 dfi_bckstop_year                    = 2000
 dfi_bckstop_month                   = 01  
 dfi_bckstop_day                     = 24  
 dfi_bckstop_hour                    = 11  
 dfi_bckstop_minute                  = 00  
 dfi_bckstop_second                  = 00  
 dfi_fwdstop_year                    = 2000
 dfi_fwdstop_month                   = 01  
 dfi_fwdstop_day                     = 24  
 dfi_fwdstop_hour                    = 12  
 dfi_fwdstop_minute                  = 30  
 dfi_fwdstop_second                  = 00  
 /

LSF_TIME=0:10
NQS_TIME=0:10:00
NUM_PROCESSORS=8
