 &time_control
 run_days                            = 0,
 run_hours                           = 0,
 run_minutes                         = 0,
 run_seconds                         = 0,
 start_year                          = 1996, 1996,
 start_month                         = 01, 01,
 start_day                           = 01, 01,
 start_hour                          = 00, 00,
 start_minute                        = 00,  00,
 start_second                        = 00,  00,
 end_year                            = 1996, 1996,
 end_month                           = 01, 01,
 end_day                             = 01, 01,
 end_hour                            = 03, 03,
 end_minute                          = 00,  00,
 end_second                          = 00,  00,
 interval_seconds                    = 21600,      
 input_from_file                     = .true.,.true.,
 history_interval                    = 180, 180, 180, 180,
 frames_per_outfile                  = 1,   1,   1,   1,
 auxhist1_interval                   = 60, 60,                             
 frames_per_auxhist1                 = 24, 24,  
 restart                             = .false.
 restart_interval                    = 1440,
 io_form_history                     = 2
 io_form_restart                     = 1
 io_form_input                       = 1
 io_form_boundary                    = 2
 debug_level                         = 0
 auxinput5_inname                    = "wrflowinp_d<domain>",
 auxinput5_interval                  = 360, 360,
 io_form_auxinput5                   = 2
 io_form_auxinput1                   = 0
 io_form_auxinput2                   = 0
 io_form_auxinput3                   = 0
 io_form_auxinput4                   = 0
 /

 &domains
 time_step                           = 120,
 time_step_fract_num                 = 0,
 time_step_fract_den                 = 1,
 max_dom                             = 1,
 s_we                                = 1,       1,        1,        1,
 e_we                                = 1112,    922,      829,      1783,
 s_sn                                = 1,       1,        1,        1,
 e_sn                                = 255,     340,      340,      673,
 s_vert                              = 1,       1,        1,        1,
 e_vert                              = 35,      35,       35,       35,
 dx                                  = 36025.1, 12008.37, 12008.37, 4002.79,
 dy                                  = 36025.1, 12008.37, 12008.37, 4002.97,
 grid_id                             = 1,       2,        3,        4,
 parent_id                           = 0,       1,        1,        3,
 i_parent_start                      = 0,       252,      252,      94,
 j_parent_start                      = 0,       34,       34,       58,
 parent_grid_ratio                   = 1,       3,        3,        3,
 parent_time_step_ratio              = 1,       3,        3,        3,
 feedback                            = 1,
 smooth_option                       = 0
 /


 &physics
 mp_physics                          = 6,     6,     6,     6,
 ra_lw_physics                       = 3,     3,     1,     1,
 ra_sw_physics                       = 3,     3,     2,     2,
 radt                                = 30,    30,    30,    30,
 sf_sfclay_physics                   = 1,     1,     1,     1,
 sf_surface_physics                  = 2,     2,     2,     2,
 bl_pbl_physics                      = 1,     1,     1,     1,
 bldt                                = 0,     0,     0,     0,
 cu_physics                          = 1,     1,     1,     0,
 cudt                                = 5,     5,     5,     5,
 isfflx                              = 1,
 ifsnow                              = 0,
 icloud                              = 1,
 surface_input_source                = 2,
 num_soil_layers                     = 4,
 mp_zero_out                         = 0,
 maxiens                             = 1,
 maxens                              = 3,
 maxens2                             = 3,
 maxens3                             = 16,
 ensdim                              = 144,
 levsiz                              = 59,
 paerlev                             = 29,
 sst_update                          = 1,
 /

 &dynamics
 w_damping                           = 1,
 diff_opt                            = 1,
 km_opt                              = 4,
 base_temp                           = 290.
 khdif                               = 0,      0,      0,     0,
 kvdif                               = 0,      0,      0,     0,
 non_hydrostatic                     = .true., .true., .true.,.true.,
 /

 &bdy_control
 spec_bdy_width                      = 10,
 spec_zone                           = 1,
 relax_zone                          = 9,
 specified                           = .true., .false.,.false.,.false.,
 nested                              = .false., .true., .true., .true.,
 periodic_x                          = .true., .false.,.false.,.false.,
 /

 &namelist_quilt
 nio_tasks_per_group = 0,
 nio_groups = 1,
 /
