 &time_control
 run_days                            = 0,
 run_hours                           = 0
 run_minutes                         = 12
 run_seconds                         = 0,
 start_year                          = 2000, 2000, 2000,
 start_month                         = 01,   01,   01,
 start_day                           = 24,   24,   24,
 start_hour                          = 15,   15,   12,
 start_minute                        = 00,   00,   00,
 start_second                        = 00,   00,   00,
 end_year                            = 2000, 2000, 2000,
 end_month                           = 01,   01,   01,
 end_day                             = 25,   25,   25,
 end_hour                            = 12,   12,   12,
 end_minute                          = 00,   00,   00,
 end_second                          = 00,   00,   00,
 interval_seconds                    = 10800
 input_from_file                     = .true.,.true.,.true.,
 history_interval                    = 12,   12,   60,
 frames_per_outfile                  = 1,    1,    1000,
 restart                             = .true.,
 restart_interval                    = 180
 io_form_history                     = 2
 io_form_restart                     = 2
 io_form_input                       = 2
 io_form_boundary                    = 2
 debug_level                         = 0
 auxinput4_inname                    = "wrflowinp_d<domain>"
 auxinput4_interval                  = 180, 
 io_form_auxinput4                   = 2
 write_hist_at_0h_rst                = .false.
 /

 &domains
 time_step                           = 240
 time_step_fract_num                 = 0,
 time_step_fract_den                 = 1,
 max_dom                             = 2
 e_we                                = 74,    31,    94,
 e_sn                                = 61,    31,    91,
 e_vert                              = 28,    28,    28,
 p_top_requested                     = 5000,
 num_metgrid_levels                  = 27,
 num_metgrid_soil_levels             = 4,
 dx                                  = 30000, 10000,  3333.33,
 dy                                  = 30000, 10000,  3333.33,
 grid_id                             = 1,     2,     3,
 parent_id                           = 0,     1,     2,
 i_parent_start                      = 1,     31,    30,
 j_parent_start                      = 1,     17,    30,
 parent_grid_ratio                   = 1,     3,     3,
 parent_time_step_ratio              = 1,     3,     3,
 feedback                            = 1,
 smooth_option                       = 0
 /

 &physics
 sst_update                          = 1
 mp_physics                          = 3,     3,     3,
 ra_lw_physics                       = 1,     1,     1,
 ra_sw_physics                       = 1,     1,     1,
 radt                                = 30,    30,    30,
 sf_sfclay_physics                   = 1,     1,     1,
 sf_surface_physics                  = 2,     2,     2,
 bl_pbl_physics                      = 1,     1,     1,
 bldt                                = 0,     0,     0,
 cu_physics                          = 1,     1,     0,
 cudt                                = 5,     5,     5,
 isfflx                              = 1,
 ifsnow                              = 0,
 icloud                              = 1,
 surface_input_source                = 1,
 num_soil_layers                     = 4,
 sf_urban_physics                    = 0,     0,     0,
 /

 &fdda
 grid_fdda                           = 1,     1,     1,
 gfdda_inname                        = "wrffdda_d<domain>",
 gfdda_end_h                         = 24,    24,    24,
 gfdda_interval_m                    = 180,   180,   180,
 fgdt                                = 0,     0,     0,
 if_no_pbl_nudging_uv                = 0,     0,     0,
 if_no_pbl_nudging_t                 = 1,     1,     1,
 if_no_pbl_nudging_q                 = 1,     1,     1,
 if_zfac_uv                          = 0,     0,     0,
  k_zfac_uv                          = 10,   10,    10,
 if_zfac_t                           = 0,     0,     0,
  k_zfac_t                           = 10,   10,    10,
 if_zfac_q                           = 0,     0,     0,
  k_zfac_q                           = 10,   10,    10,
 guv                                 = 0.0003,     0.0003,     0.0003,
 gt                                  = 0.0003,     0.0003,     0.0003,
 gq                                  = 0.0003,     0.0003,     0.0003,
 if_ramping                          = 1,
 dtramp_min                          = 60.0,
 io_form_gfdda                       = 2,
 /

 &dynamics
 w_damping                           = 0,
 diff_opt                            = 1,
 km_opt                              = 4,
 diff_6th_opt                        = 0,      0,      0,
 diff_6th_factor                     = 0.12,   0.12,   0.12,
 base_temp                           = 290.
 damp_opt                            = 0,
 zdamp                               = 5000.,  5000.,  5000.,
 dampcoef                            = 0.2,    0.2,    0.2
 khdif                               = 0,      0,      0,
 kvdif                               = 0,      0,      0,
 non_hydrostatic                     = .true., .true., .true.,
 moist_adv_opt                       = 1,      1,      1,     
 scalar_adv_opt                      = 1,      1,      1,     
 /

 &bdy_control
 spec_bdy_width                      = 5,
 spec_zone                           = 1,
 relax_zone                          = 4,
 specified                           = .true., .false.,.false.,
 nested                              = .false., .true., .true.,
 /

 &grib2
 /

 &namelist_quilt
 nio_tasks_per_group = 0,
 nio_groups = 1,
 /
