&time_control
run_hours=3,
start_year=  2008,
start_month= 09,
start_day=   13,
start_hour=  00,
end_year=    2008,
end_month=   09,
end_day=     13,
end_hour=    03,
interval_seconds=10800,
input_from_file=true,
history_interval=720,
frames_per_outfile=1000,
debug_level=0,
/
&fdda
/
&domains
time_step=540,
e_we=75,
e_sn=44,
e_vert=45,
num_metgrid_levels=27,
num_metgrid_soil_levels=4,
dx=135000,
dy=135000,
i_parent_start=0,
j_parent_start=0,
smooth_option=0,
grid_id=1,
parent_id=0,
parent_grid_ratio=1,
parent_time_step_ratio=1,
feedback=0,	
force_sfc_in_vinterp=1,
p_top_requested=3000,
interp_type=2,
lagrange_order=2
eta_levels= 1.000, 0.995, 0.988, 0.98 , 0.97 , 0.96 , 0.945, 0.93 , 0.91 , 0.89 , 0.87 , 0.85 , 0.82 , 0.79 , 0.76 , 0.73 , 0.69 , 0.65 , 0.61 , 0.57 , 0.53 , 0.49 , 0.45 , 0.41 , 0.37 , 0.34 , 0.31 , 0.28 , 0.26 , 0.24 , 0.22 , 0.20 , 0.18 , 0.16 , 0.14 , 0.12 , 0.10 , 0.082, 0.066, 0.052, 0.040, 0.030, 0.020, 0.010, 0.000  ,
hypsometric_opt                     = 2,
/
&dfi_control
/
&physics
mp_physics=    7,
ra_lw_physics= 1,
ra_sw_physics= 2,
radt=         15,
sf_sfclay_physics=1,
sf_surface_physics=2,
bl_pbl_physics=1,
cu_physics=    1,
cudt=          0,
isfflx=1,
ifsnow=1,
icloud=1,
surface_input_source=3,
num_soil_layers=4,
num_land_cat=24
mp_zero_out=0,
mp_zero_out_thresh=1.e-8,
/
&dynamics
dyn_opt                             = 102,
w_damping=1,
diff_opt=1,
km_opt=4,
damp_opt=3
dampcoef=0.2,
base_temp=290.0,
gwd_opt=1,
iso_temp=0.,
/
&bdy_control
spec_bdy_width=5,
spec_zone=1,
relax_zone=4,
specified=true,
nested=.false.,
/
&grib2
/
&namelist_quilt
/
 &perturbation
 trajectory_io=.true.,
 check_TL = .true.
 check_AD = .true.
 check_u = .true.
 check_v = .true.
 check_w = .true.
 check_ph = .true.
 check_t = .true.
 check_mu = .true.
 check_moist = .true.
 check_tracer = .true.
 tl_standalone = .false.
 nl_pert       = 0.1,
 numer_vars    = 1,2,3,
 max_numer     = 3,
 denom_vars    = 1,2,3,
 max_denom     = 3,
 scenario_type = 0,
 /
