 1000.00     300.00      10.00
   25.00     300.00      10.00     +3.00      +0.00
   75.00     300.00      10.00     +3.00      +0.00
  125.00     300.00      10.00     +3.00      +0.00
  175.00     300.00      10.00     +3.00      +0.00
  225.00     300.00      10.00     +3.00      +0.00
  275.00     300.00      10.00     +3.00      +0.00
  325.00     300.00       9.00     +3.00      +0.00
  375.00     300.00       9.00     +3.00      +0.00
  425.00     300.00       9.00     +3.00      +0.00
  475.00     300.00       9.00     +3.00      +0.00
  525.00     300.00       9.00     +3.00      +0.00
  575.00     300.00       9.00     +3.00      +0.00
  625.00     300.00       9.00     +3.00      +0.00
  675.00     300.00       9.00     +3.00      +0.00
  725.00     300.00       9.00     +3.00      +0.00
  775.00     300.00       9.00     +3.00      +0.00
  825.00     300.00       8.00     +3.00      +0.00
  875.00     300.00       8.00     +3.00      +0.00
  925.00     300.00       8.00     +3.00      +0.00
  975.00     300.00       8.00     +3.00      +0.00
 1025.00     300.00       8.00     +3.00      +0.00
 1075.00     300.00       8.00     +3.00      +0.00
 1125.00     300.00       8.00     +3.00      +0.00
 1175.00     300.00       7.00     +3.00      +0.00
 1225.00     300.00       7.00     +3.00      +0.00
 1275.00     300.00       7.00     +3.00      +0.00
 1325.00     300.00       7.00     +3.00      +0.00
 1375.00     300.00       7.00     +3.00      +0.00
 1425.00     300.00       7.00     +3.00      +0.00
 1475.00     300.00       7.00     +3.00      +0.00
 1525.00     300.00       7.00     +3.00      +0.00
 1575.00     300.00       6.00     +3.00      +0.00
 1625.00     300.00       6.00     +3.00      +0.00
 1675.00     300.00       6.00     +3.00      +0.00
 1725.00     300.00       6.00     +3.00      +0.00
 1775.00     300.00       6.00     +3.00      +0.00
 1825.00     300.00       5.00     +3.00      +0.00
 1875.00     300.00       5.00     +3.00      +0.00
 1925.00     300.00       5.00     +3.00      +0.00
 1975.00     300.00       5.00     +3.00      +0.00
 2025.00     300.00       4.00     +3.00      +0.00
 2075.00     300.00       4.00     +3.00      +0.00
 2200.00     300.00       4.00     +3.00      +0.00
 2400.00     300.00       4.00     +3.00      +0.00
 2600.00     300.00       4.00     +3.00      +0.00
 2800.00     300.00       4.00     +3.00      +0.00
 3000.00     300.00       4.00     +3.00      +0.00
 3400.00     300.00       4.00     +3.00      +0.00
 3800.00     300.00       4.00     +3.00      +0.00
 4200.00     300.00       3.60     +3.00      +0.00
 4600.00     300.00       3.20     +3.00      +0.00
 5000.00     300.00       2.80     +3.00      +0.00
 5400.00     300.00       2.40     +3.00      +0.00
 5800.00     300.00       1.50     +3.00      +0.00
 6200.00     300.00       1.00     +3.00      +0.00
 6600.00     300.00       0.80     +3.00      +0.00
 7000.00     300.00       0.40     +3.00      +0.00
 8000.00     300.00       0.20     +3.00      +0.00
 9000.00     300.00       0.10     +3.00      +0.00
10000.00     300.00       0.10     +3.00      +0.00
12000.00     300.00       0.05     +3.00      +0.00
14000.00     300.00       0.05     +3.00      +0.00
16000.00     300.00       0.01     +3.00      +0.00
18000.00     300.00       0.01     +3.00      +0.00
20000.00     300.00       0.01     +3.00      +0.00
