 &time_control
 run_days                            = 0,
 run_hours                           = 1,
 run_minutes                         = 0,
 run_seconds                         = 0,
 start_year                          = 0001,
 start_month                         = 01,
 start_day                           = 01,
 start_hour                          = 00,
 start_minute                        = 00,
 start_second                        = 00,
 end_year                            = 0001,
 end_month                           = 01,
 end_day                             = 01,
 end_hour                            = 01,
 end_minute                          = 00,
 end_second                          = 00,
 history_interval                    = 10,
 frames_per_outfile                  = 1000,
 restart                             = .false.,
 restart_interval                    = 60,
 io_form_history                     = 2
 io_form_restart                     = 2
 io_form_input                       = 2
 io_form_boundary                    = 2
 debug_level                         = 0
 /

 &domains
 time_step                           = 3,
 time_step_fract_num                 = 0,
 time_step_fract_den                 = 1,
 max_dom                             = 1,
 s_we                                = 1,
 e_we                                = 3,
 s_sn                                = 1,
 e_sn                                = 202,
 s_vert                              = 1,
 e_vert                              = 81,
 dx                                  = 250,
 dy                                  = 250,
 ztop                                = 20000.,
 /

 &physics
 mp_physics                          = 2,
 ra_lw_physics                       = 0,
 ra_sw_physics                       = 0,
 radt                                = 0,
 sf_sfclay_physics                   = 0,
 sf_surface_physics                  = 0,
 bl_pbl_physics                      = 0,
 bldt                                = 0,
 cu_physics                          = 0,
 cudt                                = 0,
 num_soil_layers                     = 5,
 /

 &fdda
 /

 &dynamics
 rk_ord                              = 3,
 diff_opt                            = 2,      2,      2,
 km_opt                              = 2,      2,      2,
 damp_opt                            = 2,
 dampcoef                            = .003,
 zdamp                               = 5000.,
 khdif                               = 300,
 kvdif                               = 1,
 smdiv                               = 0.1,
 emdiv                               = 0.01,
 epssm                               = 0.1,
 time_step_sound                     = 6,
 h_mom_adv_order                     = 5,
 v_mom_adv_order                     = 3,
 h_sca_adv_order                     = 5,
 v_sca_adv_order                     = 3,
 mix_full_fields                     = .true.,
 non_hydrostatic                     = .true.,
 moist_adv_opt                       = 1,      1,      1,     
 scalar_adv_opt                      = 1,      1,      1,     
 chem_adv_opt                        = 1,      1,      1,     
 tke_adv_opt                         = 1,      1,      1,     
 /

 &bdy_control
 periodic_x                          = .true.,
 symmetric_xs                        = .false.,
 symmetric_xe                        = .false.,
 open_xs                             = .false., 
 open_xe                             = .false.,
 periodic_y                          = .false.,
 symmetric_ys                        = .false.,
 symmetric_ye                        = .false.,
 open_ys                             = .true.,
 open_ye                             = .true.,
 /

 &grib2
 /

 &namelist_quilt
 nio_tasks_per_group = 0,
 nio_groups = 1,
 /
