0.0 3.0 -9.0 288.0 0.0025 97200.0
200.0 3.0 -9.0 286.0 0.0025
850.0 3.0 -9.0 286.0 0.0025
900.0 3.0 -9.0 288.0 0.0025
1000.0 3.0 -9.0 292.0 0.0005
2000.0 3.0 -9.0 300.0 0.0030
3500.0 3.0 -9.0 310.0 0.0020
4000.0 3.0 -9.0 312.0 0.0015
6000.0 3.0 -9.0 312.0 0.0001
7000.0 3.0 -9.0 312.0 0.0001
8000.0 3.0 -9.0 312.0 0.0001
9000.0 3.0 -9.0 312.0 0.0001
10000.0 3.0 -9.0 312.0 0.0001
11000.0 3.0 -9.0 312.0 0.0001
12000.0 3.0 -9.0 312.0 0.0001
13000.0 3.0 -9.0 312.0 0.0001
14000.0 3.0 -9.0 312.0 0.0001
15000.0 3.0 -9.0 312.0 0.0001
16000.0 3.0 -9.0 312.0 0.0001
17000.0 3.0 -9.0 312.0 0.0001

