 &time_control
 run_days                            = 0,
 run_hours                           = 30,
 run_minutes                         = 00,
 run_seconds                         = 0,
 start_year                          = 2008, 2008,2001,
 start_month                         = 05, 05, 07,
 start_day                           = 13, 13, 11,
 start_hour                          = 12, 12, 00,
 start_minute                        = 00, 00, 00,
 start_second                        = 00, 00, 00,
 end_year                            = 2008, 2008,2001,
 end_month                           = 05, 05,07,
 end_day                             = 13, 13,11,
 end_hour                            = 13, 13, 08,
 end_minute                          = 00, 00, 00,
 end_second                          = 00, 00, 00,
 history_interval                    = 1, 1, 10,
 frames_per_outfile                  = 1, 1, 18,
 restart                             = .False.,
 restart_interval                    = 60,
 io_form_history                     = 2
 io_form_restart                     = 2
 io_form_input                       = 2
 io_form_boundary                    = 2
 /

 &domains
 time_step                           = 0, 
 time_step_fract_num                 = 1,
 time_step_fract_den                 = 2,
 max_dom                             = 1,
 s_we                                = 1,     1,     1,
 e_we                                = 33,   34,    82,
 s_sn                                = 1,     1,     1,
 e_sn                                = 33,   34,    82,
 s_vert                              = 1,     1,     1,
 e_vert                              = 251,   251,    51,
 dx                                  = 100,
 dy                                  = 100,
 ztop                                = 5000, 5000,1500,
 grid_id                             = 1,     2,     3,
 parent_id                           = 0,     1,     2,
 i_parent_start                      = 1,     13,    36,
 j_parent_start                      = 1,     13,    36,
 parent_grid_ratio                   = 1,     3,     3,
 parent_time_step_ratio              = 1,     3,     3,
 feedback                            = 0,
 smooth_option                       = 1
 /
 nproc_x                             = 4,
 nproc_y                             = 4,

 &physics
 mp_physics                          = 0, 0, 8,
 progn                               = 0, 0, 1,
 ra_lw_physics                       = 0,  0, 0,
 ra_sw_physics                       = 0,  0, 0,
 radt                                = 1,  1, 5,
 cam_abs_freq_s                      = 21600,
 levsiz                              = 59,
 paerlev                             = 29,
 cam_abs_dim1                        = 4,
 cam_abs_dim2                        = 51,
 sf_sfclay_physics                   = 1,  1, 1,
 sf_surface_physics                  = 0,  0, 0,
 bl_pbl_physics                      = 0,  0, 0,
 bldt                                = 0,  0, 0,
 cu_physics                          = 0,  0, 0,
 cudt                                = 5,  5, 5,
 isfflx                              = 1,
 ifsnow                              = 0,
 icloud                              = 1,
 mp_zero_out                         = 0,
 /

 &fdda
 /

 &dynamics
 hybrid_opt                          = 0, 
 rk_ord                              = 3,
 diff_opt                            = 0,
 km_opt                              = 0,
 damp_opt                            = 1,
 w_damping                           = 0,
 zdamp                               = 350., 350., 250.,
 dampcoef                            = 0.02,  0.02,0.02,
 base_temp                           = 290.,
 base_pres                           = 100000.,
 base_lapse                          = 50.,
 khdif                               = 0., 0., 500,
 kvdif                               = 0., 0., 500,
 c_s                                 = 0.18, 0.18, 0.18,
 c_k                                 = 0.1, 0.10, 0.10,
 mix_isotropic                       = 0, 0, 1,
 smdiv                               = 0.1, 0.1, 0.1,
 emdiv                               = 0.01, 0.01, 0.01,
 epssm                               = 0.1, 0.1, 0.1,
 pert_coriolis                       = .false., .false., .true.,
 top_lid                             = .true., .true., .true.,
 tke_heat_flux                       = 0.02,    0.02,  0.02,
 tke_drag_coefficient                = 0.0013, 0.0013, 0.0013,
 mix_full_fields                     = .true., .true., .true.,
 non_hydrostatic                     = .true., .true., .true.,
 time_step_sound                     = 6, 6, 10,
 h_mom_adv_order                     = 5, 5, 5,
 v_mom_adv_order                     = 3, 3, 3,
 h_sca_adv_order                     = 5, 5, 5,
 v_sca_adv_order                     = 3, 3, 3,
 moist_adv_opt                       = 2, 2, 1,
 scalar_adv_opt                      = 2, 2, 1,
 chem_adv_opt                        = 2, 2, 1,
 tke_adv_opt                         = 2, 2, 1,
 use_theta_m                         = 1
 /

 &bdy_control
 periodic_x                          = .true., 
 symmetric_xs                        = .false.,
 symmetric_xe                        = .false.,
 open_xs                             = .false.,
 open_xe                             = .false.,
 periodic_y                          = .true., 
 symmetric_ys                        = .false.,
 symmetric_ye                        = .false.,
 open_ys                             = .false.,
 open_ye                             = .false.,
 /

 &grib2
 /

 &namelist_quilt
 nio_tasks_per_group = 0,
 nio_groups = 1,
 /

 &ideal
 ideal_case = 9
 /

