 &time_control
 run_days                            = 0,
 run_hours                           = 1,
 run_minutes                         = 0,
 run_seconds                         = 0,
 start_year                          = 2008, 2008, 2008,
 start_month                         = 01,   01,   01,
 start_day                           = 02,   01,   01,
 start_hour                          = 12,   00,   00,
 start_minute                        = 00,   00,   00,
 start_second                        = 00,   00,   00,
 end_year                            = 2008, 2008, 2008,
 end_month                           = 01,   01,   01,
 end_day                             = 02,   01,   01,
 end_hour                            = 12,   00,   00,
 end_minute                          = 00,   00,   00,
 end_second                          = 00,   00,   00,
 history_interval                    = 60,   30,   30,
 interval_seconds                    = 21600 
 input_from_file                     = .true.,.true.,.true.,
 frames_per_outfile                  = 200,  100,  100,
 restart                             = .false.,
 restart_interval_h                  = 1120,
 io_form_history                     = 2
 io_form_restart                     = 2
 io_form_input                       = 2
 io_form_boundary                    = 2
 debug_level                         = 0
 /

 &domains
 time_step                           = 600
 time_step_fract_num                 = 00
 time_step_fract_den                 = 112
 max_dom                             = 1,
 e_we                                = 257,    41,    41,
 e_sn                                = 129,    81,    81,
 e_vert                              = 41,    41,    41,
 p_top_requested                     = 5000,
 num_metgrid_levels                  = 27,
 num_metgrid_soil_levels             = 4,
 dx                                  = 156343.322,20000, 4000,
 dy                                  = 156343.322,20000, 4000,
 p_top_requested                     = 5000
 grid_id                             = 1,     2,     3,
 parent_id                           = 0,     1,     2,
 i_parent_start                      = 1,     17,    17,
 j_parent_start                      = 1,     33,    33,
 parent_grid_ratio                   = 1,     5,     5,
 parent_time_step_ratio              = 1,     5,     5,
 feedback                            = 1,
 smooth_option                       = 00
 /

 &physics
 mp_physics                          = 3,     3,     3,
 ra_lw_physics                       = 1,     1,     1,
 ra_sw_physics                       = 1,     1,     1,
 radt                                = 30,    30,    30,
 sf_sfclay_physics                   = 1,     1,     1,
 sf_surface_physics                  = 1,     1,     1,
 bl_pbl_physics                      = 1,     1,     1,
 bldt                                = 0,     0,     0,
 cu_physics                          = 1,     1,     0,
 cudt                                = 5,     5,     5,
 isfflx                              = 1,
 ifsnow                              = 0,
 icloud                              = 1,
 surface_input_source                = 3,
 num_soil_layers                     = 5,
 num_land_cat                        = 21,
 mp_zero_out                         = 0,
 /

 &fdda
 /

 &dynamics
 diff_opt                            = 0,      0,      0,
 km_opt                              = 0,      0,      0,
 damp_opt                            = 3,
 base_temp                           = 290.
 zdamp                               = 5000.,  5000.,  5000.,
 dampcoef                            = 0.2,    0.2,    0.2
 khdif                               = 0,      0,      0,
 kvdif                               = 0,      0,      0,
 non_hydrostatic                     = .true.,.true., .true.,
 moist_adv_opt                       = 0,      0,      0,     
 scalar_adv_opt                      = 0,      0,      0,     
 chem_adv_opt                        = 0,      0,      0,     
 tke_adv_opt                         = 0,      0,      0,     
 fft_filter_lat                      = 45.,
 w_damping                           = 1,
 /

 &bdy_control
 periodic_x                          = .true., .false.,.false.,
 symmetric_xs                        = .false.,.false.,.false.,
 symmetric_xe                        = .false.,.false.,.false.,
 open_xs                             = .false.,.false.,.false.,
 open_xe                             = .false.,.false.,.false.,
 periodic_y                          = .false.,.false.,.false.,
 symmetric_ys                        = .false.,.false.,.false.,
 symmetric_ye                        = .false.,.false.,.false.,
 open_ys                             = .false.,.false.,.false.,
 open_ye                             = .false.,.false.,.false.,
 nested                              = .false., .true., .true.,
 polar                               = .true. ,.false.,.false.,
 /

 &grib2
 /

 &namelist_quilt
 nio_tasks_per_group = 0,
 nio_groups = 1,
 /
