 1017.10     288.00     8.93
   10.0       288.00      9.0       0.0      2.0
   100.0      288.00      8.84      0.0      2.0
   200.0      288.00      8.68      0.0      2.0
   300.0      288.00      8.52      0.0      2.0
   400.0      288.00      8.36      0.0      2.0
   500.0      288.00      8.20      0.0      2.0
   600.0      288.00      8.04      0.0      2.0
   700.0      288.00      7.88      0.0      2.0
   800.0      288.00      7.72      0.0      2.0
   900.0      288.00      7.56      0.0      2.0
   1000.0     288.00      7.40      0.0      2.0
   1100.0     288.00      7.21      0.0      2.0
   1200.0     288.00      7.02      0.0      2.0
   1300.0     288.00      6.83      0.0      2.0
   1400.0     288.00      6.64      0.0      2.0
   1500.0     288.00      6.45      0.0      2.0
   1600.0     288.00      6.26      0.0      2.0
   1700.0     288.00      6.07      0.0      2.0
   1800.0     288.00      5.88      0.0      2.0
   1900.0     288.00      5.69      0.0      2.0
   2000.0     288.00      5.5       0.0      2.0
   3000.0     288.00      4.00      0.0      2.0
   3500.0     288.00      3.20      0.0      2.0
   4000.0     288.00      2.42      0.0      2.0
   4500.0     288.00      1.02      0.0      2.0
   5000.0     288.00      1.03      0.0      2.0
   5500.0     288.00      0.85      0.0      2.0
   6000.0     288.00      0.59      0.0      2.0
   6500.0     288.00      0.39      0.0      2.0
   7000.0     288.00      0.12      0.0      2.0
   7500.0     288.00      0.15      0.0      2.0
   8000.0     288.00      0.15      0.0      2.0
   8500.0     288.00      0.17      0.0      2.0
   9000.0     288.00      0.11      0.0      2.0
  10000.0     288.00      0.05      0.0      2.0
  16000.0     288.00      0.001     0.0      2.0           
