 &time_control
 start_year                          = 2012, 2012, 2012,
 start_month                         = 10, 10, 10,
 start_day                           = 26, 26, 26,
 start_hour                          = 12, 12, 12,
 start_minute                        = 00,      00,     00,
 start_second                        = 00,      00,     00,
 end_year                            = 2012, 2012, 2012,
 end_month                           = 10, 10, 10,
 end_day                             = 31, 31, 31,
 end_hour                            = 12, 12, 12,
 end_minute                          = 00, 00, 00,
 end_second                          = 00,      00,     00,
 interval_seconds                    = 432000,
 history_interval                    = 180,         180,        180,
 auxhist1_interval                   = 600000,           600000,        600000
 frames_per_outfile                  = 1,1,1
 frames_per_auxhist1                 = 1,1,1
 analysis                            = F,    F,F  ,
 restart                             = .false.,
 restart_interval                    = 36000,
 reset_simulation_start              = F,
 io_form_input                       = 2
 io_form_history                     = 2
 io_form_restart                     = 2
 io_form_boundary                    = 2
 io_form_auxinput1                   = 2
 io_form_auxhist1                    = 2 
 auxinput1_inname                    = "met_nmm.d<domain>.<date>"
 debug_level                         = 1
 override_restart_timers             = T
 nocolons			     = T
 /

 &fdda
 /

 &domains
 time_step                           = 38,
 time_step_fract_num                 = 4,
 time_step_fract_den                 = 7,
 max_dom                             = 3,
 s_we                                = 1,             1,        1,
 e_we                                = 288,         142,       265,
 s_sn                                = 1,             1,        1,
 e_sn                                = 576,         274,       472,
 s_vert                              = 1,             1,	1,
 e_vert                              = 61,   61,    61,
 dx                                  = 0.135,      .045,   .015,
 dy                                  = 0.135,      .045,   .015,
 grid_id                             = 1,             2,	3,
 
 tile_sz_x                           = 0,
 tile_sz_y                           = 0,
 numtiles                            = 1,
 nproc_x                             = -1, ! must be on its own line
 nproc_y                             = -1, ! must be on its own line
 parent_id                           = 0,              1,	2,
 parent_grid_ratio                   = 1,              3,	3,
 parent_time_step_ratio              = 1,              3,	3,
 i_parent_start                      = 0,            125,	27,
 j_parent_start                      = 0,            243,	57,
 feedback                            = 1,
 num_moves                           = -99
 num_metgrid_levels                  = 22,
 p_top_requested                     =  200.0,
 ptsgm                               = 15000,
  eta_levels = 1.0, 0.995253, 0.990479, 0.985679, 0.980781, 0.975782, 0.970684, 0.965486, 0.960187, 0.954689, 0.948991, 0.943093, 0.936895, 0.930397, 0.923599, 0.916402, 0.908404, 0.899507, 0.888811, 0.876814, 0.862914, 0.847114, 0.829314, 0.809114, 0.786714, 0.762114, 0.735314, 0.706714, 0.676614, 0.645814, 0.614214, 0.582114, 0.549714, 0.517114, 0.484394, 0.451894, 0.419694, 0.388094, 0.356994, 0.326694, 0.297694, 0.270694, 0.245894, 0.223694, 0.203594, 0.185494, 0.169294, 0.154394, 0.140494, 0.127094, 0.114294, 0.101894, 0.089794, 0.078094, 0.066594, 0.055294, 0.044144, 0.033054, 0.022004, 0.010994, 0.0,
 use_prep_hybrid = F,
 num_metgrid_soil_levels = 4,
/
 &physics
 num_soil_layers                     = 4,
 mp_physics                          = 5,           5,	5,
 ra_lw_physics                       = 4,          4,		4,
 ra_sw_physics                       = 4,          4,		4,
 sf_sfclay_physics                   = 88,          88,    	88,
 sf_surface_physics                  = 2,          2,		2,
 bl_pbl_physics                      = 3,          3,		3,
 cu_physics                          = 84,         84,		0,
 mommix                              = 1.0,       1.0,		1.0,
 var_ric                             = 1.0,
 coef_ric_l                          = 0.16,
 coef_ric_s                          = 0.25,
 h_diff                              = 1.0,        1.0,		1.0,
 gwd_opt                             = 2, 0,		0,
 sfenth                              = 0.0,        0.0,		0.0,
 nrads                               =  28,84,252    ,
 nradl                               =  28,84,252    ,
 nphs                                =       2,6,6    ,
 ncnvc                               =       2,6,6    ,

 ntrack                              =  7,7,14         ,

! IMPORTANT: dt*nphs*movemin for domain 2 and 3 must be 540 and 180, respectively
!            AND the history output times (10800, 10800, 3600) must be
!            divisible by dt*nphs*movemin for domains 1, 2 and 3

 gfs_alpha                           = -1.0, -1.0, -1.0    ,
 sas_pgcon                           =  0.55,0.2,0.2 ,
sas_mass_flux     = 0.5,0.5,0.5, 
 co2tf                               = 1,
 vortex_tracker = 2, 2, 7, 

! Disable nest movement at certain intervals to prevent junk in the output files:
 nomove_freq                         = 0.0,      6.0,      6.0, ! hours
  tg_option = 1,
  ntornado = 2, 5, 15,
  ens_pblamp = 0.2,
  ens_random_seed = 99,
  ens_sasamp = 50.0,
  icloud = 3,
  icoef_sf = 2, 2, 2,
  lcurr_sf = F, F, F,
  pert_pbl = F,
  pert_sas = F,
/

 &dynamics
 non_hydrostatic                     = .true.,    .true,        .true,
 euler_adv                           = .false.
 wp                                  = 0,         0,            0,
 coac                                =  0.75,3.0,4.0  ,
 codamp                              = 6.4,       6.4,          6.4,
 terrain_smoothing                   =       2        ,
/

 &bdy_control
 spec_bdy_width                      = 1,
 specified                           = .true. /

 &namelist_quilt 
 poll_servers                        = T,
 nio_tasks_per_group                 = 0,
 nio_groups                          = 1 /

 &logging
  compute_tasks_silent=.true.
  io_servers_silent=.true.
  stderr_logging=0
 /
