 &time_control
 start_year                          = 2008, 2008, 2008,
 start_month                         = 09, 09, 09,
 start_day                           = 06, 06, 06,
 start_hour                          = 12, 12, 12,
 start_minute                        = 00,      00,     00,
 start_second                        = 00,      00,     00,
 end_year                            = 2008, 2008, 2008,
 end_month                           = 09, 09, 09,
 end_day                             = 11, 11, 11,
 end_hour                            = 12, 12, 12,
 end_minute                          = 00, 00, 00,
 end_second                          = 00,      00,     00,
 interval_seconds                    = 432000,
 history_interval                    = 180,         180,        180,
 auxhist1_interval                   = 600000,           600000,        600000
 frames_per_outfile                  = 1,1,1
 frames_per_auxhist1                 = 1,1,1
 analysis                            = F,    F,F  ,
 restart                             = .false.,
 restart_interval                    = 36000,
 reset_simulation_start              = F,
 io_form_input                       = 2
 io_form_history                     = 2
 io_form_restart                     = 2
 io_form_boundary                    = 2
 io_form_auxinput1                   = 2
 io_form_auxhist1                    = 2 
 auxinput1_inname                    = "met_nmm.d<domain>.<date>"
 debug_level                         = 1
 override_restart_timers             = T
 /

 &fdda
 /

 &domains
 time_step                           = 45,
 time_step_fract_num                 = 0,
 time_step_fract_den                 = 1,
 max_dom                             = 3,
 s_we                                = 1,             1,        1,
 e_we                                = 160,          88,       190,
 s_sn                                = 1,             1,        1,
 e_sn                                = 310,         170,       302,
 s_vert                              = 1,             1,	1,
 e_vert                              = 43,   43,    43,
 dx                                  = 0.18,      .06,   .02,
 dy                                  = 0.18,      .06,   .02,
 grid_id                             = 1,             2,	3,
 
 tile_sz_x                           = 0,
 tile_sz_y                           = 0,
 numtiles                            = 1,
 nproc_x                             = -1, ! must be on its own line
 nproc_y                             = -1, ! must be on its own line
 parent_id                           = 0,              1,	2,
 parent_grid_ratio                   = 1,              3,	3,
 parent_time_step_ratio              = 1,              3,	3,
 i_parent_start                      = 0,             66,	12,
 j_parent_start                      = 0,            126,	35,
 feedback                            = 1,
 num_moves                           = -99
 num_metgrid_levels                  = 22,
 p_top_requested                     =  5000,
 ptsgm                               = 42000
  eta_levels                          = 1.0,         .9919699, .9827400, .9721600, .9600599, .9462600,
                                      .9306099,     .9129300, .8930600, .8708600, .8462000, .8190300,
                                      .7893100,     .7570800, .7224600, .6856500, .6469100, .6066099,
                                      .5651600,     .5230500, .4807700, .4388600, .3978000, .3580500,
                                      .3200099,     .2840100, .2502900, .2190100, .1902600, .1640600,
                                      .1403600,     .1190600, .1000500, .0831600, .0682400, .0551200,
                                      .0436200,     .0335700, .0248200, .0172200, .0106300, .0049200,
                                      .0000000,
 use_prep_hybrid = F,
 num_metgrid_soil_levels = 4,
/
 &physics
 num_soil_layers                     = 4,
 mp_physics                          = 85,           85,	85,
 ra_lw_physics                       = 98,          98,		98,
 ra_sw_physics                       = 98,          98,		98,
 sf_sfclay_physics                   = 88,          88,    	88,
 sf_surface_physics                  = 88,          88,		88,
 bl_pbl_physics                      = 3,          3,		3,
 cu_physics                          = 84,         84,		0,
 mommix                              = 1.0,       1.0,		1.0,
 var_ric                             = 1.0,
 coef_ric_l                          = 0.16,
 coef_ric_s                          = 0.25,
 h_diff                              = 1.0,        1.0,		1.0,
 gwd_opt                             = 2, 0,		0,
 sfenth                              = 0.0,        0.0,		0.0,
 nrads                               =  80,240,720    ,
 nradl                               =  80,240,720    ,
 nphs                                =       2,6,6    ,
 ncnvc                               =       2,6,6    ,

 movemin                             =  3,6,18         ,

! IMPORTANT: dt*nphs*movemin for domain 2 and 3 must be 540 and 180, respectively
!            AND the history output times (10800, 10800, 3600) must be
!            divisible by dt*nphs*movemin for domains 1, 2 and 3

 gfs_alpha                           =  0.7,0.7,0.7     ,
 sas_pgcon                           =  0.55,0.2,0.2 ,
sas_mass_flux     = 0.5,0.5,0.5, 
 co2tf                               = 1,
 vortex_tracker = 2, 2, 6, 

! Disable nest movement at certain intervals to prevent junk in the output files:
 nomove_freq                         = 0.0,      6.0,      6.0, ! hours
/

 &dynamics
 non_hydrostatic                     = .true.,    .true,        .true,
 euler_adv                           = .false.
 wp                                  = 0,         0,            0,
 coac                                =  0.75,3.0,4.0  ,
 codamp                              = 6.4,       6.4,          6.4,
 terrain_smoothing                   =       2        ,
/

 &bdy_control
 spec_bdy_width                      = 1,
 specified                           = .true. /

 &namelist_quilt 

 nio_tasks_per_group                 = 0,
 nio_groups                          = 1 /

 &logging
  compute_slaves_silent=.true.
  io_servers_silent=.true.
  stderr_logging=0
 /
