 &time_control
 run_days                            = 0,
 run_hours                           = 12,
 run_minutes                         = 0,
 run_seconds                         = 0,
 start_year                          = 2007,
 start_month                         = 06,
 start_day                           = 1,
 start_hour                          = 5,
 start_minute                        = 00,
 start_second                        = 00,
 end_year                            = 2007,
 end_month                           = 06,
 end_day                             = 2,
 end_hour                            = 5,
 end_minute                          = 00,
 end_second                          = 00,
 history_interval                    = 30,
 frames_per_outfile                  = 1000,
 restart                             = .false.,
 restart_interval                    = 360,
 io_form_history                     = 2
 io_form_restart                     = 2
 io_form_input                       = 2
 io_form_boundary                    = 2
 /

 &domains
 time_step                           = 15,
 time_step_fract_num                 = 0,
 time_step_fract_den                 = 1,
 max_dom                             = 1,
 s_we                                = 1,
 e_we                                = 202,
 s_sn                                = 1,
 e_sn                                = 202,
 s_vert                              = 1,
 e_vert                              = 35,
 dx                                  = 2000,
 dy                                  = 2000,
 ztop                                = 20000.,
 eta_levels                          = 1.000, 0.993, 0.983, 0.970, 0.954,
                                       0.934, 0.909, 0.880, 0.845, 0.807,
                                       0.765, 0.719, 0.672, 0.622, 0.571,
                                       0.520, 0.468, 0.420, 0.376, 0.335,
                                       0.298, 0.263, 0.231, 0.202, 0.175,
                                       0.150, 0.127, 0.106, 0.088, 0.070,
                                       0.055, 0.040, 0.026, 0.013, 0.000

 /

 &physics
 mp_physics                          = 14,
 ra_lw_physics                       = 1,
 ra_sw_physics                       = 1,
 radt                                = 5,
 sf_sfclay_physics                   = 5,
 sf_surface_physics                  = 1,
 bl_pbl_physics                      = 5,
 bldt                                = 0,
 bl_mynn_tkeadvect                   = .true.,
 tracer_pblmix                       = 1
 cu_physics                          = 0,
 cudt                                = 0,
 windfarm_opt                        = 1,
 windfarm_ij                         = 1,
 /

 &fdda
 /

 &dynamics
 hybrid_opt                          = 0, 
 rk_ord                              = 3,
 diff_opt                            = 1,      1,      1,
 km_opt                              = 4,      4,      4,
 damp_opt                            = 2,
 dampcoef                            = .003,
 zdamp                               = 5000.,
 khdif                               = 300,
 kvdif                               = 1,
 smdiv                               = 0.1,
 emdiv                               = 0.01,
 epssm                               = 0.1,
 time_step_sound                     = 6,
 h_mom_adv_order                     = 5,
 v_mom_adv_order                     = 3,
 h_sca_adv_order                     = 5,
 v_sca_adv_order                     = 3,
 tracer_opt                          = 2,
 mix_full_fields                     = .true.,
 non_hydrostatic                     = .true.,
 /

 &bdy_control
 periodic_x                          = .true.,
 symmetric_xs                        = .false.,
 symmetric_xe                        = .false.,
 open_xs                             = .false., 
 open_xe                             = .false.,
 periodic_y                          = .true.,
 symmetric_ys                        = .false.,
 symmetric_ye                        = .false.,
 open_ys                             = .false.,
 open_ye                             = .false.,
 /

 &grib2
 /

 &namelist_quilt
 nio_tasks_per_group = 0,
 nio_groups = 1,
 /

 $ideal
 ideal_case = 8
 /

