 &time_control
 run_days = 0 ,
 run_hours = 0 ,   
 run_minutes                         = 0,
 run_seconds = 900 ,
 start_year                          = 2008,     2008,
 start_month                         = 12,       12,
 start_day                           = 02,       03,
 start_hour                          = 12,       12,
 start_minute                        = 00,       00,
 start_second                        = 00,       00,
 tstart                              = 00,       
 end_year                            = 2008,     2008,
 end_month                           = 12,       12,
 end_day                             = 02,       06,
 end_hour                            = 18,       12,
 end_minute                          = 00,       00,
 end_second                          = 00,       00,
 interval_seconds                    = 10800,
 history_interval = 15 ,       60,
 frames_per_outfile = 200,        1,
 restart                             = .false.,
 restart_interval                    = 86400,
 io_form_history                     = 2
 io_form_restart                     = 2
 io_form_input                       = 2
 io_form_boundary                    = 2
 reset_simulation_start              = F,
 io_form_input                       = 2
 io_form_auxinput1                   = 2
 auxinput1_inname                    = "met_nmm.d<domain>.<date>"
 debug_level                         = 0 
 /

 &domains
 time_step                           = 30,
 time_step_fract_num                 = 0,
 time_step_fract_den                 = 1,
 max_dom                             = 1,
 s_we                                = 1,        1,
 e_we                                = 56,       58,
 s_sn                                = 1,        1,
 e_sn                                = 92,       100,
 s_vert                              = 1,        1,
 e_vert                              = 38,       38,
 num_metgrid_levels                  = 43,
 dx                                  = .096290,     .032,   
 dy                                  = .096011,     .031667,
 grid_id                             = 1,        2,
 parent_id                           = 0,        1,    
 i_parent_start                      = 1,        17,
 j_parent_start                      = 1,        31,
 parent_grid_ratio                   = 1,        3, 
 parent_time_step_ratio              = 1,        3, 
 p_top_requested                     = 5000. 
 ptsgm                               = 42000.,
 tile_sz_x		   	     = 0,
 tile_sz_y		   	     = 0,
 numtiles			     = 1
 nproc_x = 4
 nproc_y = 1
/

 &physics
 mp_physics                          = 5,        5,
 ra_lw_physics                       = 99,       99,
 ra_sw_physics                       = 99,       99,
 nrads                               = 120,      315,
 nradl                               = 120,      315,
 co2tf                               = 1,
 sf_sfclay_physics                   = 2,        2,
 sf_surface_physics                  = 2,        2, 
 bl_pbl_physics                      = 2,        2,
 nphs                                = 4,        18,
 cu_physics                          = 2,
 ncnvc                               = 4,
 tprec                               = 3,
 theat                               = 6,
 tclod                               = 6,
 trdsw                               = 6,
 trdlw                               = 6,
 tsrfc                               = 6,
 pcpflg                              = .false.,
 isfflx                              = 0,
 ifsnow                              = 0,
 icloud                              = 0,
 num_soil_layers                     = 4,
 mp_zero_out                         = 0
 gwd_opt                             = 2
 /

 &dynamics
 /

 &bdy_control
 spec_bdy_width                      = 1,
 specified                           = .true.,
 nested                              = .false.
 /

 &grib2
/

 &namelist_quilt
 nio_tasks_per_group = 0,
 nio_groups = 1
 /
