 &time_control
 run_days                            = 0,
 run_hours                           = 1,   
 run_minutes                         = 0,
 run_seconds                         = 0,
 start_year                          = 2003,
 start_month                         = 04,
 start_day                           = 17,
 start_hour                          = 00,
 start_minute                        = 00,
 start_second                        = 00,
 end_year                            = 2003,
 end_month                           = 04,
 end_day                             = 18,
 end_hour                            = 00,
 end_minute                          = 00,
 end_second                          = 00,
 interval_seconds                    = 3600,
 history_interval                    = 60
 frames_per_outfile                  = 10,
 restart                             = .false.,
 restart_interval                    = 120,
 io_form_history                     = 2
 io_form_restart                     = 2
 io_form_input                       = 2
 io_form_boundary                    = 2
 debug_level                         = 0
 /

 &domains
 time_step                           = 20,
 time_step_fract_num                 = 0,
 time_step_fract_den                 = 1,
 max_dom                             = 1,
 s_we                                = 1,
 e_we                                = 90,
 s_sn                                = 1,
 e_sn                                = 144
 s_vert                              = 1,
 e_vert                              = 61,
 dx                                  = 90000
 dy                                  = 90000
 grid_id                             = 1,
 tile_sz_x		   	     = 0,
 tile_sz_y		   	     = 0,
 numtiles			     = 1,
 /

 &physics
 mp_physics                          = 5,
 ra_lw_physics                       = 99,
 ra_sw_physics                       = 99,
 radt                                = 30,
 sf_sfclay_physics                   = 2,
 sf_surface_physics                  = 99,
 bl_pbl_physics                      = 2,
 bldt                                = 0,
 cu_physics                          = 2,
 cudt                                = 5,
 isfflx                              = 1,
 ifsnow                              = 0,
 icloud                              = 1,
 num_soil_layers                     = 4,
 mp_zero_out                         = 0,
 /

 &dynamics
 dyn_opt                             = 4,
 rk_ord                              = 3,
 diff_opt                            = 0,
 km_opt                              = 1,
 damp_opt                            = 1,
 zdamp                               = 5000.,
 dampcoef                            = 0.2,
 khdif                               = 0,
 kvdif                               = 0,
 mix_cr_len			     = 200.,
 smdiv                               = 0.1,
 emdiv                               = 0.01,
 epssm                               = 0.1,
 time_step_sound                     = 4,
 /

 &bdy_control
 spec_bdy_width                      = 5,
 spec_zone                           = 1,
 relax_zone                          = 4,
 specified                           = .true.,
 periodic_x                          = .false.,
 symmetric_xs                        = .false.,
 symmetric_xe                        = .false.,
 open_xs                             = .false.,
 open_xe                             = .false.,
 periodic_y                          = .false.,
 symmetric_ys                        = .false.,
 symmetric_ye                        = .false.,
 open_ys                             = .false.,
 open_ye                             = .false.,
 nested                              = .false.,
 /

 &namelist_quilt
 nio_tasks_per_group = 0,
 nio_groups = 1,
 /
