1019.00     292.37     8.817		
   2.00     289.36     8.689     -0.52     -2.85
   4.50     288.32     8.658     -0.67     -3.19
  10.00     288.13     8.079     -1.00     -3.93
  15.00     287.85     7.924     -1.02     -4.04
  20.00     287.81     7.768     -1.04     -4.16
  25.00     287.77     7.613     -1.06     -4.27
  28.00     287.62     7.660     -1.07     -4.34
  30.00     287.68     7.458     -1.10     -4.40
  35.00     287.77     7.303     -1.18     -4.56
  40.00     287.42     7.147     -1.52     -5.78
  42.00     287.52     7.010     -2.10     -4.48
  50.00     287.29     6.774     -1.93     -6.79
  60.00     287.26     7.172     -2.34     -6.72
  70.00     287.22     7.507     -2.54     -6.84
  80.00     287.19     7.761     -2.74     -6.93
  90.00     287.22     7.639     -2.67     -7.10
 100.00     287.25     7.436     -2.89     -7.19
 110.00     287.28     7.234     -3.03     -7.13
 120.00     287.31     7.031     -3.25     -7.16
 130.00     287.34     6.711     -3.45     -7.26
 140.00     287.34     6.828     -3.50     -7.62
 150.00     286.57     6.828     -3.58     -7.42
 160.00     287.31     6.818     -3.77     -7.74
 170.00     287.35     6.810     -3.59     -7.56
 180.00     287.33     6.784     -3.35     -7.36
 190.00     287.31     6.769     -3.37     -7.27
 200.00     287.30     6.768     -3.24     -7.25
 210.00     287.29     6.767     -3.20     -7.17
 220.00     287.31     6.759     -3.27     -7.12
 230.00     287.33     6.751     -3.39     -7.22
 240.00     287.35     6.752     -3.44     -7.23
 250.00     287.35     6.758     -3.37     -7.41
 260.00     287.28     6.757     -3.26     -7.33
 270.00     287.29     6.738     -3.19     -7.32
 280.00     287.36     6.689     -3.50     -7.59
 290.00     287.37     6.646     -3.54     -7.50
 300.00     287.39     6.629     -3.58     -7.48
 310.00     287.47     6.587     -3.39     -7.40
 320.00     287.50     6.556     -3.54     -7.20
 330.00     287.51     6.537     -3.55     -6.88
 340.00     287.53     6.524     -3.66     -6.87
 350.00     287.56     6.518     -3.63     -7.01
 360.00     287.66     6.516     -3.64     -6.94
 370.00     287.73     6.503     -3.43     -6.87
 380.00     287.69     6.471     -3.45     -7.14
 390.00     287.75     6.440     -3.16     -7.13
 400.00     287.76     7.280     -3.43     -7.00
 410.00     287.95     6.478     -3.50     -6.71
 420.00     288.15     6.518     -3.55     -6.48
 430.00     288.34     6.574     -3.90     -6.55
 440.00     288.45     6.578     -3.33     -6.72
 450.00     288.65     6.606     -3.84     -6.68
 460.00     288.82     6.658     -3.93     -6.49
 470.00     289.16     6.776     -4.11     -6.60
 480.00     289.53     6.949     -4.24     -6.78
 490.00     289.89     7.032     -4.40     -6.70
 500.00     290.11     6.993     -4.40     -6.48
 510.00     291.14     7.659     -4.56     -6.38
 520.00     291.85     8.059     -4.75     -6.40
 530.00     292.27     8.188     -5.03     -6.42
 540.00     292.66     8.345     -5.36     -6.39
 550.00     292.95     8.590     -5.67     -6.32
 560.00     293.14     8.908     -5.87     -6.09
 570.00     293.47     9.208     -6.13     -6.22
 580.00     293.66     9.078     -6.35     -6.18
 590.00     293.87     9.098     -6.52     -6.14
 600.00     293.97     9.204     -6.64     -6.10
 605.00     293.27     11.010     -4.50     -7.48
 612.00     293.44     11.120     -4.26     -7.41
 619.00     293.61     11.260     -4.04     -7.35
 625.00     293.77     11.370     -3.81     -7.29
 632.00     293.83     11.470     -3.60     -7.24
 637.00     294.09     11.590     -3.39     -7.18
 643.00     294.25     11.710     -3.20     -7.12
 649.00     294.42     11.730     -3.01     -7.07
 655.00     294.47     11.670     -2.83     -7.00
 662.00     294.53     11.600     -2.65     -6.93
 668.00     294.61     11.560     -2.48     -6.85
 675.00     294.57     11.540     -2.31     -6.77
 681.00     294.63     11.500     -2.14     -6.67
 688.00     294.59     11.460     -1.96     -6.57
 694.00     294.65     11.430     -1.78     -6.45
 703.00     294.85     11.370     -1.60     -6.33
 714.00     294.95     11.350     -1.42     -6.21
 724.00     295.05     11.370     -1.23     -6.08
 732.00     295.23     11.410     -1.05     -5.94
 738.00     295.39     11.440     -0.87     -5.81
 744.00     295.46     11.410     -0.70     -5.68
 751.00     295.52     11.370     -0.54     -5.54
 758.00     295.58     11.340     -0.40     -5.41
 764.00     295.55     11.330     -0.27     -5.28
 771.00     295.62     11.340     -0.16     -5.15
 777.00     295.68     11.340     -0.06     -5.02
 783.00     295.74     11.340     0.02     -4.90
 789.00     295.80     11.350     0.09     -4.78
 796.00     295.97     11.360     0.15     -4.66
 803.00     296.03     11.370     0.20     -4.54
 810.00     296.10     11.360     0.24     -4.43
 816.00     296.18     11.330     0.27     -4.32
 823.00     296.23     11.330     0.29     -4.22
 830.00     296.30     11.330     0.31     -4.12
 836.00     296.47     11.300     0.32     -4.03
 842.00     296.43     11.250     0.32     -3.94
 849.00     296.50     11.200     0.32     -3.86
 856.00     296.46     11.160     0.31     -3.78
 862.00     296.52     11.110     0.29     -3.71
 869.00     296.60     11.070     0.27     -3.65
 877.00     296.56     11.050     0.25     -3.58
 884.00     296.63     11.020     0.22     -3.52
 891.00     296.61     10.990     0.20     -3.47
 898.00     296.68     10.970     0.18     -3.41
 907.00     296.66     10.960     0.16     -3.36
 916.00     296.65     10.950     0.14     -3.30
 924.00     296.73     10.940     0.14     -3.25
 932.00     296.71     10.930     0.14     -3.19
 939.00     296.67     10.920     0.16     -3.13
 946.00     296.64     10.920     0.17     -3.07
 953.00     296.71     10.930     0.20     -3.01
 961.00     296.69     10.920     0.23     -2.95
 968.00     296.65     10.920     0.26     -2.90
 976.00     296.73     10.910     0.28     -2.84
 983.00     296.70     10.900     0.31     -2.79
 990.00     296.77     10.900     0.33     -2.75
 997.00     296.73     10.900     0.34     -2.70
1003.00     296.79     10.890     0.34     -2.67
1009.00     296.75     10.880     0.34     -2.63
1016.00     296.83     10.880     0.33     -2.60
1023.00     296.79     10.870     0.31     -2.57
1029.00     296.86     10.860     0.29     -2.54
1036.00     296.82     10.850     0.27     -2.50
1042.00     296.77     10.840     0.25     -2.46
1049.00     296.84     10.850     0.23     -2.41
1055.00     296.80     10.850     0.22     -2.34
1062.00     296.87     10.850     0.22     -2.27
1069.00     296.84     10.840     0.23     -2.19
1076.00     296.80     10.830     0.24     -2.10
1084.00     296.88     10.800     0.26     -2.00
1091.00     296.85     10.730     0.29     -1.89
1098.00     296.82     10.730     0.33     -1.78
1105.00     296.89     10.750     0.37     -1.66
1112.00     296.86     10.780     0.41     -1.53
1120.00     296.94     10.780     0.45     -1.41
1128.00     297.02     10.730     0.50     -1.29
1137.00     297.10     10.680     0.55     -1.18
1148.00     297.22     10.640     0.61     -1.06
1161.00     297.24     10.590     0.67     -0.95
1172.00     297.26     10.550     0.72     -0.84
1183.00     297.26     10.530     0.79     -0.74
1191.00     297.23     10.510     0.85     -0.65
1198.00     297.31     10.500     0.91     -0.57
1206.00     297.28     10.490     0.98     -0.49
1215.00     297.27     10.470     1.04     -0.43
1226.00     297.28     10.460     1.10     -0.37
1236.00     297.27     10.440     1.15     -0.32
1246.00     297.27     10.430     1.19     -0.28
1255.00     297.36     10.420     1.23     -0.24
1265.00     297.35     10.410     1.25     -0.22
1275.00     297.36     10.400     1.26     -0.20
1288.00     297.38     10.380     1.27     -0.18
1301.00     297.30     10.380     1.26     -0.18
1313.00     297.32     10.370     1.24     -0.17
1322.00     297.42     10.350     1.21     -0.17
1330.00     297.38     10.360     1.17     -0.17
1337.00     297.36     10.370     1.13     -0.18
1346.00     297.45     10.390     1.08     -0.18
1355.00     297.53     10.450     1.02     -0.18
1363.00     297.62     10.480     0.95     -0.19
1372.00     297.61     10.470     0.88     -0.19
1380.00     297.58     10.380     0.79     -0.20
1388.00     297.56     10.320     0.70     -0.20
1395.00     297.63     10.360     0.60     -0.21
1402.00     297.70     10.420     0.48     -0.21
1410.00     297.78     10.430     0.36     -0.20
1418.00     297.87     10.420     0.23     -0.20
1427.00     297.96     10.400     0.09     -0.19
1437.00     297.96     10.390     -0.03     -0.16
1448.00     298.06     10.370     -0.15     -0.13
1458.00     298.06     10.340     -0.27     -0.07
1469.00     298.17     10.320     -0.37     0.00
1481.00     298.18     10.290     -0.46     0.09
1492.00     298.20     10.250     -0.53     0.19
1504.00     298.21     10.160     -0.58     0.31
1517.00     298.24     10.110     -0.61     0.44
1529.00     298.26     10.100     -0.62     0.58
1542.00     298.40     10.080     -0.62     0.73
1555.00     298.41     10.050     -0.61     0.88
1564.00     298.61     10.110     -0.59     1.01
1571.00     299.32     10.280     -0.57     1.14
1578.00     299.70     10.330     -0.55     1.25
1585.00     299.77     10.240     -0.54     1.34
1591.00     299.84     10.140     -0.54     1.40
1598.00     299.80     9.960     -0.55     1.44
1604.00     299.86     9.650     -0.58     1.46
1611.00     299.83     9.540     -0.62     1.45
1618.00     299.80     9.510     -0.68     1.43
1624.00     299.86     9.480     -0.75     1.38
1631.00     299.82     9.480     -0.83     1.32
1637.00     299.88     9.480     -0.92     1.26
1643.00     299.84     9.470     -1.01     1.18
1650.00     299.91     9.450     -1.11     1.10
1656.00     299.97     9.440     -1.20     1.02
1662.00     300.04     9.430     -1.28     0.93
1668.00     300.10     9.400     -1.36     0.84
1675.00     300.06     9.330     -1.43     0.75
1681.00     300.12     9.230     -1.49     0.67
1688.00     300.20     9.140     -1.53     0.58
1694.00     300.26     9.040     -1.57     0.48
1700.00     300.22     8.960     -1.60     0.39
1706.00     300.28     8.930     -1.61     0.29
1712.00     300.34     8.890     -1.62     0.20
1719.00     300.30     8.870     -1.62     0.10
1725.00     300.36     8.850     -1.62     0.00
1731.00     300.32     8.820     -1.62     -0.10
1737.00     300.39     8.780     -1.61     -0.20
1743.00     300.34     8.750     -1.59     -0.29
1750.00     300.41     8.700     -1.58     -0.39
1756.00     300.47     8.650     -1.56     -0.48
1762.00     300.53     8.600     -1.54     -0.57
1768.00     300.49     8.550     -1.51     -0.65
1774.00     300.55     8.480     -1.48     -0.73
1780.00     300.61     8.430     -1.44     -0.80
1787.00     300.67     8.420     -1.40     -0.87
1793.00     300.64     8.420     -1.35     -0.93
1799.00     300.70     8.420     -1.30     -0.98
1806.00     300.67     8.420     -1.25     -1.03
1813.00     300.63     8.420     -1.21     -1.07
1819.00     300.69     8.430     -1.16     -1.11
1825.00     300.65     8.430     -1.13     -1.15
1831.00     300.72     8.440     -1.10     -1.18
1838.00     300.68     8.450     -1.08     -1.21
1844.00     300.74     8.480     -1.06     -1.23
1851.00     300.81     8.490     -1.06     -1.26
1857.00     300.77     8.490     -1.07     -1.28
1864.00     300.73     8.490     -1.08     -1.31
1870.00     300.79     8.490     -1.10     -1.33
1876.00     300.86     8.490     -1.13     -1.36
1882.00     300.81     8.490     -1.15     -1.40
1888.00     300.77     8.480     -1.18     -1.44
1894.00     300.84     8.480     -1.21     -1.49
1901.00     300.90     8.470     -1.25     -1.55
1907.00     300.86     8.460     -1.28     -1.61
1914.00     300.93     8.420     -1.32     -1.68
1920.00     300.99     8.410     -1.37     -1.76
1926.00     300.94     8.390     -1.42     -1.84
1932.00     301.02     8.380     -1.47     -1.92
1939.00     300.98     8.370     -1.54     -2.01
1946.00     301.05     8.320     -1.61     -2.09
1952.00     301.11     8.240     -1.70     -2.17
1959.00     301.19     8.170     -1.79     -2.25
1965.00     301.25     8.080     -1.89     -2.31
1972.00     301.31     7.990     -2.00     -2.38
1978.00     301.48     7.900     -2.12     -2.43
1984.00     301.55     7.810     -2.24     -2.47
1990.00     301.61     7.770     -2.36     -2.51
1996.00     301.68     7.730     -2.48     -2.55
2003.00     301.74     7.650     -2.60     -2.58
2009.00     301.81     7.510     -2.72     -2.61
2016.00     301.98     7.300     -2.83     -2.64
2022.00     302.15     7.130     -2.93     -2.67
2028.00     302.21     6.990     -3.03     -2.70
2034.00     302.38     6.800     -3.12     -2.74
2040.00     302.56     6.600     -3.20     -2.78
2047.00     302.62     6.380     -3.27     -2.83
2052.00     302.79     6.190     -3.33     -2.88
2058.00     302.85     5.980     -3.38     -2.93
2065.00     302.91     5.730     -3.43     -2.98
2071.00     302.99     5.530     -3.46     -3.03
2078.00     303.16     5.350     -3.50     -3.08
2084.00     303.23     5.190     -3.52     -3.13
2091.00     303.29     4.970     -3.54     -3.17
2097.00     303.46     4.630     -3.56     -3.22
2103.00     303.53     4.420     -3.56     -3.26
2110.00     303.60     4.280     -3.56     -3.29
2116.00     303.66     4.160     -3.56     -3.33
2122.00     303.73     4.090     -3.55     -3.37
2128.00     303.79     4.080     -3.52     -3.40
2134.00     303.86     4.090     -3.49     -3.44
2141.00     303.82     4.090     -3.46     -3.47
2147.00     303.88     4.090     -3.41     -3.51
2153.00     303.84     4.080     -3.36     -3.55
2159.00     303.91     4.090     -3.30     -3.59
2166.00     303.87     4.090     -3.24     -3.63
2172.00     303.93     4.100     -3.18     -3.67
2179.00     303.89     4.100     -3.12     -3.72
2185.00     303.96     4.110     -3.06     -3.76
2192.00     303.92     4.130     -3.00     -3.81
2198.00     303.99     4.140     -2.95     -3.86
2204.00     304.05     4.140     -2.90     -3.91
2210.00     304.01     4.140     -2.85     -3.97
2216.00     303.96     4.140     -2.81     -4.03
2222.00     304.03     4.140     -2.77     -4.10
2228.00     303.97     4.140     -2.73     -4.18
2234.00     304.04     4.140     -2.70     -4.25
2241.00     304.00     4.140     -2.66     -4.33
2247.00     304.07     4.140     -2.63     -4.42
2253.00     304.03     4.150     -2.60     -4.50
2260.00     304.09     4.160     -2.57     -4.58
2266.00     304.05     4.170     -2.54     -4.65
2272.00     304.12     4.190     -2.50     -4.72
2279.00     304.08     4.210     -2.47     -4.78
2286.00     304.04     4.240     -2.43     -4.83
2292.00     304.11     4.260     -2.39     -4.88
2298.00     304.07     4.270     -2.35     -4.91
2304.00     304.13     4.290     -2.30     -4.93
2310.00     304.08     4.310     -2.24     -4.94
2317.00     304.15     4.300     -2.18     -4.93
2323.00     304.11     4.290     -2.11     -4.92
2330.00     304.18     4.290     -2.03     -4.91
2336.00     304.25     4.320     -1.95     -4.88
2342.00     304.21     4.400     -1.85     -4.84
2349.00     304.27     4.490     -1.75     -4.79
2355.00     304.34     4.550     -1.64     -4.74
2361.00     304.41     4.570     -1.53     -4.67
2368.00     304.37     4.600     -1.41     -4.60
2374.00     304.44     4.620     -1.29     -4.53
2381.00     304.51     4.630     -1.16     -4.45
2387.00     304.47     4.640     -1.04     -4.37
2395.00     304.54     4.660     -0.91     -4.29
2403.00     304.73     4.700     -0.78     -4.22
2410.00     304.81     4.730     -0.66     -4.15
2417.00     304.88     4.730     -0.54     -4.10
2424.00     304.96     4.730     -0.43     -4.06
2429.00     305.02     4.720     -0.32     -4.03
2435.00     304.97     4.720     -0.22     -4.02
2441.00     305.04     4.710     -0.12     -4.02
2447.00     305.09     4.710     -0.04     -4.03
2453.00     305.16     4.700     0.04     -4.06
2460.00     305.23     4.680     0.12     -4.10
2466.00     305.29     4.670     0.18     -4.15
2472.00     305.25     4.660     0.24     -4.20
2479.00     305.32     4.650     0.29     -4.26
2485.00     305.28     4.650     0.34     -4.33
2492.00     305.35     4.650     0.38     -4.40
2498.00     305.30     4.640     0.42     -4.47
2504.00     305.37     4.650     0.46     -4.54
2510.00     305.42     4.650     0.50     -4.62
2516.00     305.39     4.660     0.54     -4.69
2522.00     305.45     4.660     0.58     -4.77
2528.00     305.51     4.670     0.63     -4.84
2534.00     305.58     4.690     0.68     -4.92
2541.00     305.54     4.700     0.74     -4.99
2547.00     305.60     4.690     0.81     -5.07
2553.00     305.67     4.670     0.88     -5.14
2560.00     305.74     4.650     0.96     -5.20
2566.00     305.70     4.640     1.05     -5.26
2572.00     305.76     4.640     1.14     -5.31
2578.00     305.83     4.630     1.23     -5.36
2584.00     305.78     4.630     1.33     -5.40
2591.00     305.85     4.620     1.43     -5.44
2597.00     305.91     4.620     1.52     -5.47
2603.00     305.87     4.600     1.61     -5.49
2609.00     305.94     4.570     1.69     -5.52
2615.00     306.11     4.560     1.77     -5.53
2621.00     306.07     4.560     1.85     -5.55
2627.00     306.13     4.550     1.92     -5.56
2633.00     306.19     4.550     1.99     -5.57
2640.00     306.15     4.520     2.06     -5.57
2646.00     306.22     4.480     2.13     -5.57
2652.00     306.17     4.470     2.20     -5.57
2658.00     306.24     4.470     2.27     -5.56
2665.00     306.31     4.480     2.36     -5.54
2671.00     306.27     4.480     2.44     -5.52
2677.00     306.33     4.490     2.53     -5.49
2683.00     306.29     4.500     2.63     -5.46
2690.00     306.35     4.500     2.73     -5.42
2696.00     306.43     4.490     2.84     -5.38
2702.00     306.38     4.490     2.95     -5.33
2708.00     306.45     4.490     3.06     -5.27
2714.00     306.51     4.480     3.16     -5.22
2720.00     306.47     4.470     3.27     -5.16
2727.00     306.53     4.460     3.38     -5.10
2733.00     306.60     4.450     3.49     -5.04
2739.00     306.67     4.450     3.60     -4.98
2745.00     306.62     4.440     3.71     -4.91
2751.00     306.68     4.430     3.82     -4.85
2758.00     306.75     4.420     3.95     -4.78
2764.00     306.70     4.410     4.08     -4.71
2770.00     306.78     4.410     4.22     -4.64
2776.00     306.84     4.400     4.37     -4.57
2782.00     306.80     4.390     4.54     -4.49
2789.00     306.87     4.380     4.72     -4.41
2795.00     306.93     4.370     4.91     -4.33
2801.00     307.00     4.360     5.11     -4.25
2807.00     307.06     4.350     5.33     -4.17
2814.00     307.03     4.330     5.55     -4.09
2820.00     307.09     4.330     5.77     -4.02
2826.00     307.16     4.330     5.99     -3.95
2833.00     307.23     4.330     6.22     -3.90
2841.00     307.32     4.320     6.44     -3.85
2848.00     307.39     4.310     6.66     -3.81
2854.00     307.45     4.310     6.88     -3.78
2861.00     307.52     4.310     7.08     -3.75
2867.00     307.70     4.300     7.28     -3.74
2873.00     307.66     4.290     7.47     -3.73
2879.00     307.73     4.280     7.65     -3.72
2886.00     307.90     4.270     7.83     -3.72
2892.00     307.85     4.260     8.00     -3.72
2898.00     307.92     4.260     8.16     -3.72
2903.00     307.98     4.270     8.33     -3.71
2910.00     308.05     4.270     8.49     -3.70
2916.00     308.12     4.260     8.65     -3.68
2923.00     308.18     4.250     8.81     -3.65
2929.00     308.14     4.250     8.97     -3.60
2936.00     308.22     4.220     9.14     -3.55
2943.00     308.29     4.190     9.30     -3.49
2949.00     308.37     4.130     9.46     -3.42
2956.00     308.43     4.030     9.62     -3.34
2962.00     308.50     3.880     9.77     -3.26
2968.00     308.56     3.780     9.92     -3.17
2974.00     308.53     3.750     10.07     -3.07
2981.00     308.59     3.710     10.20     -2.98
2987.00     308.66     3.650     10.33     -2.88
2994.00     308.72     3.600     10.45     -2.79
2999.00     308.79     3.600     10.56     -2.69
3006.00     308.86     3.620     10.67     -2.60
3012.00     308.92     3.660     10.78     -2.50
3018.00     309.00     3.710     10.88     -2.41
3025.00     309.06     3.780     10.98     -2.31
3032.00     309.14     3.820     11.08     -2.22
3038.00     309.10     3.800     11.18     -2.13
3045.00     309.16     3.790     11.27     -2.05
3051.00     309.13     3.770     11.37     -1.97
3058.00     309.20     3.740     11.46     -1.89
3064.00     309.15     3.710     11.54     -1.83
3071.00     309.23     3.690     11.62     -1.78
3077.00     309.18     3.660     11.68     -1.75
3083.00     309.24     3.630     11.73     -1.73
3089.00     309.31     3.620     11.76     -1.73
3095.00     309.27     3.600     11.78     -1.75
3102.00     309.33     3.590     11.79     -1.78
3108.00     309.41     3.590     11.77     -1.83
3114.00     309.47     3.600     11.74     -1.88
3121.00     309.55     3.640     11.71     -1.95
3127.00     309.50     3.720     11.66     -2.01
3133.00     309.56     3.770     11.60     -2.08
3139.00     309.63     3.820     11.55     -2.14
3146.00     309.59     3.860     11.49     -2.20
3152.00     309.67     3.900     11.43     -2.25
3159.00     309.73     3.920     11.38     -2.29
3165.00     309.68     3.930     11.33     -2.33
3171.00     309.76     3.950     11.28     -2.36
3178.00     309.71     3.970     11.24     -2.38
3184.00     309.78     3.990     11.21     -2.40
3190.00     309.74     3.990     11.18     -2.42
3197.00     309.70     4.000     11.15     -2.43
3203.00     309.77     4.010     11.12     -2.45
3210.00     309.72     4.010     11.10     -2.46
3216.00     309.80     4.010     11.07     -2.47
3222.00     309.75     4.010     11.04     -2.49
3228.00     309.82     4.020     11.01     -2.50
3235.00     309.78     4.020     10.99     -2.52
3242.00     309.74     4.020     10.95     -2.54
3248.00     309.81     4.020     10.92     -2.57
3255.00     309.77     4.030     10.88     -2.59
3261.00     309.84     4.040     10.85     -2.62
3267.00     309.80     4.040     10.81     -2.66
3274.00     309.86     4.040     10.78     -2.69
3280.00     309.83     4.050     10.75     -2.73
3287.00     309.89     4.050     10.72     -2.77
3293.00     309.86     4.060     10.69     -2.81
3300.00     309.81     4.060     10.68     -2.85
3306.00     309.89     4.060     10.67     -2.89
3312.00     309.84     4.060     10.66     -2.93
3318.00     309.91     4.060     10.67     -2.96
3325.00     309.86     4.060     10.69     -2.99
3331.00     309.94     4.060     10.73     -3.02
3337.00     309.89     4.040     10.78     -3.03
3344.00     309.96     4.030     10.84     -3.05
3350.00     309.91     4.030     10.91     -3.05
3356.00     309.86     4.050     11.00     -3.06
3362.00     309.94     4.050     11.10     -3.06
3368.00     309.89     4.060     11.22     -3.06
3374.00     309.96     4.070     11.34     -3.06
3380.00     310.02     4.080     11.47     -3.05
3386.00     309.98     4.110     11.60     -3.05
3393.00     310.04     4.140     11.73     -3.04
3399.00     310.11     4.130     11.85     -3.04
3405.00     310.17     4.120     11.97     -3.03
3411.00     310.24     4.110     12.08     -3.02
3417.00     310.42     4.050     12.18     -3.01
3423.00     310.48     3.960     12.27     -3.00
3430.00     310.56     3.890     12.35     -2.98
3436.00     310.63     3.850     12.41     -2.96
3443.00     310.71     3.810     12.47     -2.94
3449.00     310.66     3.770     12.51     -2.92
3456.00     310.73     3.760     12.55     -2.90
3462.00     310.79     3.770     12.59     -2.88
3468.00     310.87     3.780     12.62     -2.87
3475.00     310.82     3.780     12.65     -2.85
3481.00     310.89     3.770     12.69     -2.85
3487.00     310.86     3.750     12.73     -2.85
3494.00     310.92     3.720     12.76     -2.85
3500.00     310.99     3.700     12.80     -2.86
3506.00     310.95     3.690     12.85     -2.88
3513.00     311.01     3.670     12.89     -2.90
3519.00     310.97     3.650     12.94     -2.93
3525.00     311.05     3.640     12.99     -2.96
3531.00     311.00     3.640     13.04     -2.99
3538.00     311.07     3.650     13.08     -3.02
3544.00     311.02     3.660     13.13     -3.06
3550.00     311.09     3.670     13.17     -3.09
3557.00     311.06     3.680     13.22     -3.12
3564.00     311.14     3.690     13.26     -3.15
3570.00     311.09     3.690     13.31     -3.17
3577.00     311.16     3.690     13.35     -3.18
3584.00     311.13     3.700     13.40     -3.17
3590.00     311.19     3.710     13.44     -3.16
3596.00     311.15     3.710     13.48     -3.13
3603.00     311.10     3.720     13.52     -3.08
3609.00     311.17     3.730     13.55     -3.03
3615.00     311.12     3.740     13.57     -2.96
3621.00     311.19     3.750     13.59     -2.87
3628.00     311.26     3.750     13.61     -2.78
3634.00     311.34     3.750     13.61     -2.68
3640.00     311.30     3.740     13.61     -2.57
3646.00     311.36     3.720     13.60     -2.46
3653.00     311.43     3.710     13.59     -2.34
3661.00     311.40     3.710     13.57     -2.22
3669.00     311.49     3.700     13.55     -2.09
3677.00     311.46     3.690     13.53     -1.95
3684.00     311.55     3.660     13.51     -1.80
3692.00     311.51     3.630     13.50     -1.64
3700.00     311.61     3.590     13.49     -1.46
3710.00     311.61     3.570     13.48     -1.27
3720.00     311.62     3.550     13.48     -1.07
3730.00     311.60     3.540     13.49     -0.86
3739.00     311.69     3.500     13.51     -0.64
3748.00     311.80     3.460     13.53     -0.41
3758.00     311.80     3.410     13.56     -0.19
3770.00     311.81     3.370     13.59     0.03
3779.00     311.92     3.360     13.63     0.23
3787.00     311.89     3.360     13.68     0.42
3793.00     311.96     3.340     13.73     0.59
3799.00     311.92     3.250     13.78     0.73
3806.00     311.98     3.160     13.84     0.86
3813.00     312.05     3.130     13.90     0.95
3819.00     312.14     3.040     13.96     1.03
3826.00     312.09     2.950     14.02     1.09
3832.00     312.16     2.920     14.09     1.14
3839.00     312.12     2.910     14.15     1.17
3845.00     312.20     2.880     14.21     1.20
3852.00     312.16     2.860     14.27     1.21
3858.00     312.23     2.860     14.33     1.22
3865.00     312.30     2.850     14.38     1.23
3871.00     312.25     2.840     14.42     1.23
3877.00     312.21     2.820     14.47     1.23
3883.00     312.28     2.810     14.51     1.23
3889.00     312.22     2.800     14.54     1.22
3895.00     312.29     2.780     14.57     1.21
3902.00     312.26     2.730     14.59     1.20
3909.00     312.33     2.670     14.61     1.19
3915.00     312.29     2.640     14.63     1.19
3921.00     312.36     2.650     14.65     1.18
3928.00     312.32     2.660     14.66     1.19
3934.00     312.27     2.660     14.67     1.21
3940.00     312.34     2.650     14.69     1.24
3947.00     312.30     2.620     14.71     1.29
3954.00     312.38     2.600     14.73     1.36
3961.00     312.34     2.570     14.75     1.44
3967.00     312.30     2.550     14.77     1.54
3974.00     312.37     2.510     14.79     1.66
3981.00     312.34     2.460     14.81     1.78
3988.00     312.42     2.450     14.83     1.91
3996.00     312.39     2.440     14.84     2.05
4005.00     312.38     2.420     14.85     2.18
4015.00     312.49     2.300     14.86     2.30
4024.00     312.59     2.180     14.88     2.41
4031.00     312.55     2.110     14.89     2.51
4037.00     312.51     2.050     14.91     2.59
4044.00     312.58     2.000     14.94     2.66
4051.00     312.55     1.990     14.99     2.71
4059.00     312.52     2.010     15.05     2.74
4066.00     312.48     2.050     15.14     2.76
4073.00     312.56     2.020     15.24     2.77
4079.00     312.52     2.000     15.36     2.78
4086.00     312.48     2.000     15.50     2.78
4093.00     312.55     1.960     15.65     2.79
4101.00     312.65     1.910     15.81     2.81
4111.00     312.65     1.910     15.97     2.84
4123.00     312.55     1.900     16.12     2.90
4135.00     312.68     1.870     16.26     2.97
4148.00     312.71     1.820     16.38     3.06
4160.00     312.73     1.770     16.48     3.17
4171.00     312.74     1.740     16.55     3.30
4180.00     312.84     1.670     16.60     3.43
4190.00     312.83     1.640     16.63     3.58
4198.00     312.82     1.660     16.65     3.73
4207.00     312.79     1.690     16.66     3.88
4217.00     312.79     1.720     16.67     4.02
4228.00     312.81     1.670     16.70     4.16
4238.00     312.81     1.620     16.75     4.29
4248.00     312.80     1.620     16.83     4.40
4258.00     312.92     1.600     16.93     4.51
4267.00     312.90     1.580     17.07     4.60
4273.00     312.86     1.610     17.22     4.69
4279.00     312.92     1.620     17.40     4.77
4286.00     312.88     1.570     17.59     4.85
4293.00     312.97     1.530     17.79     4.92
4303.00     312.96     1.510     17.98     4.99
4313.00     312.96     1.500     18.16     5.06
4323.00     313.06     1.500     18.33     5.12
4331.00     313.03     1.490     18.48     5.18
4338.00     313.01     1.480     18.60     5.24
4345.00     313.08     1.490     18.70     5.29
4352.00     313.17     1.490     18.77     5.33
4360.00     313.15     1.490     18.83     5.36
4367.00     313.10     1.480     18.86     5.39
4373.00     313.18     1.470     18.87     5.42
4380.00     313.12     1.480     18.86     5.43
4386.00     313.20     1.500     18.85     5.45
4392.00     313.16     1.540     18.81     5.47
4398.00     313.23     1.570     18.77     5.49
4405.00     313.19     1.600     18.70     5.52
4412.00     313.26     1.610     18.62     5.55