 1017.10     286.81     8.93
   10.0      286.81      8.93      0.00      -2.00
   16.0      286.46      8.88      -0.53      -1.97
   27.0      286.47      8.80      -0.84      -2.22
   38.0      286.47      8.77      -1.01      -2.71
   48.0      286.58      8.72      -1.22      -3.20
   59.0      286.58      8.65      -1.46      -3.66
   69.0      286.58      8.61      -1.72      -4.09
   80.0      286.58      8.61      -1.98      -4.49
   90.0      286.58      8.61      -2.25      -4.83
   99.0      286.58      8.60      -2.52      -5.13
   107.0     286.55      8.61      -2.78      -5.38
   115.0     286.52      8.61      -3.02      -5.58
   124.0     286.61      8.62      -3.24      -5.74
   133.0     286.60      8.60      -3.43      -5.86
   142.0     286.59      8.60      -3.59      -5.96
   150.0     286.57      8.60      -3.72      -6.04
   157.0     286.53      8.59      -3.83      -6.11
   164.0     286.61      8.59      -3.91      -6.19
   172.0     286.59      8.58      -3.97      -6.28
   182.0     286.58      8.55      -4.02      -6.39
   191.0     286.56      8.54      -4.05      -6.51
   199.0     286.55      8.54      -4.07      -6.65
   209.0     286.54      8.54      -4.09      -6.80
   221.0     286.56      8.53      -4.12      -6.97
   234.0     286.59      8.52      -4.15      -7.13
   248.0     286.62      8.53      -4.19      -7.30
   259.0     286.53      8.53      -4.26      -7.47
   268.0     286.52      8.52      -4.34      -7.64
   278.0     286.61      8.47      -4.44      -7.80
   289.0     286.62      8.42      -4.58      -7.94
   301.0     286.64      8.40      -4.75      -8.08
   312.0     286.74      8.35      -4.95      -8.20
   323.0     286.75      8.32      -5.17      -8.33
   336.0     286.77      8.30      -5.42      -8.45
   348.0     286.79      8.29      -5.71      -8.56
   358.0     286.89      8.29      -6.02      -8.67
   368.0     286.99      8.28      -6.33      -8.76
   376.0     286.96      8.26      -6.66      -8.86
   383.0     286.93      8.23      -7.00      -8.95
   391.0     287.01      8.21      -7.33      -9.02
   400.0     287.01      8.23      -7.65      -9.07
   410.0     287.20      8.25      -7.94      -9.12
   420.0     287.40      8.29      -8.22      -9.16
   428.0     287.57      8.35      -8.47      -9.19
   434.0     287.64      8.34      -8.68      -9.21
   440.0     287.70      8.35      -8.84      -9.22
   447.0     287.87      8.37      -8.96      -9.22
   454.0     287.94      8.39      -9.03      -9.21
   463.0     288.13      8.45      -9.05      -9.20
   473.0     288.53      8.59      -9.03      -9.18
   481.0     288.81      8.74      -8.95      -9.16
   488.0     289.07      8.79      -8.82      -9.12
   493.0     289.13      8.74      -8.65      -9.07
   499.0     289.28      8.72      -8.45      -9.01
   505.0     289.75      8.99      -8.22      -8.94
   511.0     290.52      9.52      -7.96      -8.86
   517.0     290.98      9.78      -7.70      -8.77
   524.0     291.26      9.90      -7.43      -8.66
   533.0     291.65      9.99      -7.15      -8.55
   544.0     292.06      10.19      -6.89      -8.44
   552.0     292.24      10.42      -6.62      -8.33
   558.0     292.30      10.60      -6.37      -8.21
   564.0     292.56      10.84      -6.13      -8.10
   570.0     292.72      10.98      -5.89      -7.99
   576.0     292.88      10.91      -5.65      -7.89
   582.0     292.93      10.82      -5.42      -7.80
   587.0     293.09      10.83      -5.19      -7.71
   593.0     293.15      10.91      -4.96      -7.63
   599.0     293.21      10.97      -4.73      -7.55
   605.0     293.27      11.01      -4.50      -7.48
   612.0     293.44      11.12      -4.26      -7.41
   619.0     293.61      11.26      -4.04      -7.35
   625.0     293.77      11.37      -3.81      -7.29
   632.0     293.83      11.47      -3.60      -7.24
   637.0     294.09      11.59      -3.39      -7.18
   643.0     294.25      11.71      -3.20      -7.12
   649.0     294.42      11.73      -3.01      -7.07
   655.0     294.47      11.67      -2.83      -7.00
   662.0     294.53      11.60      -2.65      -6.93
   668.0     294.61      11.56      -2.48      -6.85
   675.0     294.57      11.54      -2.31      -6.77
   681.0     294.63      11.50      -2.14      -6.67
   688.0     294.59      11.46      -1.96      -6.57
   694.0     294.65      11.43      -1.78      -6.45
   703.0     294.85      11.37      -1.60      -6.33
   714.0     294.95      11.35      -1.42      -6.21
   724.0     295.05      11.37      -1.23      -6.08
   732.0     295.23      11.41      -1.05      -5.94
   738.0     295.39      11.44      -0.87      -5.81
   744.0     295.46      11.41      -0.70      -5.68
   751.0     295.52      11.37      -0.54      -5.54
   758.0     295.58      11.34      -0.40      -5.41
   764.0     295.55      11.33      -0.27      -5.28
   771.0     295.62      11.34      -0.16      -5.15
   777.0     295.68      11.34      -0.06      -5.02
   783.0     295.74      11.34      0.02      -4.90
   789.0     295.80      11.35      0.09      -4.78
   796.0     295.97      11.36      0.15      -4.66
   803.0     296.03      11.37      0.20      -4.54
   810.0     296.10      11.36      0.24      -4.43
   816.0     296.18      11.33      0.27      -4.32
   823.0     296.23      11.33      0.29      -4.22
   830.0     296.30      11.33      0.31      -4.12
   836.0     296.47      11.30      0.32      -4.03
   842.0     296.43      11.25      0.32      -3.94
   849.0     296.50      11.20      0.32      -3.86
   856.0     296.46      11.16      0.31      -3.78
   862.0     296.52      11.11      0.29      -3.71
   869.0     296.60      11.07      0.27      -3.65
   877.0     296.56      11.05      0.25      -3.58
   884.0     296.63      11.02      0.22      -3.52
   891.0     296.61      10.99      0.20      -3.47
   898.0     296.68      10.97      0.18      -3.41
   907.0     296.66      10.96      0.16      -3.36
   916.0     296.65      10.95      0.14      -3.30
   924.0     296.73      10.94      0.14      -3.25
   932.0     296.71      10.93      0.14      -3.19
   939.0     296.67      10.92      0.16      -3.13
   946.0     296.64      10.92      0.17      -3.07
   953.0     296.71      10.93      0.20      -3.01
   961.0     296.69      10.92      0.23      -2.95
   968.0     296.65      10.92      0.26      -2.90
   976.0     296.73      10.91      0.28      -2.84
   983.0     296.70      10.90      0.31      -2.79
   990.0     296.77      10.90      0.33      -2.75
   997.0     296.73      10.90      0.34      -2.70
   1003.0     296.79      10.89      0.34      -2.67
   1009.0     296.75      10.88      0.34      -2.63
   1016.0     296.83      10.88      0.33      -2.60
   1023.0     296.79      10.87      0.31      -2.57
   1029.0     296.86      10.86      0.29      -2.54
   1036.0     296.82      10.85      0.27      -2.50
   1042.0     296.77      10.84      0.25      -2.46
   1049.0     296.84      10.85      0.23      -2.41
   1055.0     296.80      10.85      0.22      -2.34
   1062.0     296.87      10.85      0.22      -2.27
   1069.0     296.84      10.84      0.23      -2.19
   1076.0     296.80      10.83      0.24      -2.10
   1084.0     296.88      10.80      0.26      -2.00
   1091.0     296.85      10.73      0.29      -1.89
   1098.0     296.82      10.73      0.33      -1.78
   1105.0     296.89      10.75      0.37      -1.66
   1112.0     296.86      10.78      0.41      -1.53
   1120.0     296.94      10.78      0.45      -1.41
   1128.0     297.02      10.73      0.50      -1.29
   1137.0     297.10      10.68      0.55      -1.18
   1148.0     297.22      10.64      0.61      -1.06
   1161.0     297.24      10.59      0.67      -0.95
   1172.0     297.26      10.55      0.72      -0.84
   1183.0     297.26      10.53      0.79      -0.74
   1191.0     297.23      10.51      0.85      -0.65
   1198.0     297.31      10.50      0.91      -0.57
   1206.0     297.28      10.49      0.98      -0.49
   1215.0     297.27      10.47      1.04      -0.43
   1226.0     297.28      10.46      1.10      -0.37
   1236.0     297.27      10.44      1.15      -0.32
   1246.0     297.27      10.43      1.19      -0.28
   1255.0     297.36      10.42      1.23      -0.24
   1265.0     297.35      10.41      1.25      -0.22
   1275.0     297.36      10.40      1.26      -0.20
   1288.0     297.38      10.38      1.27      -0.18
   1301.0     297.30      10.38      1.26      -0.18
   1313.0     297.32      10.37      1.24      -0.17
   1322.0     297.42      10.35      1.21      -0.17
   1330.0     297.38      10.36      1.17      -0.17
   1337.0     297.36      10.37      1.13      -0.18
   1346.0     297.45      10.39      1.08      -0.18
   1355.0     297.53      10.45      1.02      -0.18
   1363.0     297.62      10.48      0.95      -0.19
   1372.0     297.61      10.47      0.88      -0.19
   1380.0     297.58      10.38      0.79      -0.20
   1388.0     297.56      10.32      0.70      -0.20
   1395.0     297.63      10.36      0.60      -0.21
   1402.0     297.70      10.42      0.48      -0.21
   1410.0     297.78      10.43      0.36      -0.20
   1418.0     297.87      10.42      0.23      -0.20
   1427.0     297.96      10.40      0.09      -0.19
   1437.0     297.96      10.39      -0.03      -0.16
   1448.0     298.06      10.37      -0.15      -0.13
   1458.0     298.06      10.34      -0.27      -0.07
   1469.0     298.17      10.32      -0.37      0.00
   1481.0     298.18      10.29      -0.46      0.09
   1492.0     298.20      10.25      -0.53      0.19
   1504.0     298.21      10.16      -0.58      0.31
   1517.0     298.24      10.11      -0.61      0.44
   1529.0     298.26      10.10      -0.62      0.58
   1542.0     298.40      10.08      -0.62      0.73
   1555.0     298.41      10.05      -0.61      0.88
   1564.0     298.61      10.11      -0.59      1.01
   1571.0     299.32      10.28      -0.57      1.14
   1578.0     299.70      10.33      -0.55      1.25
   1585.0     299.77      10.24      -0.54      1.34
   1591.0     299.84      10.14      -0.54      1.40
   1598.0     299.80      9.96      -0.55      1.44
   1604.0     299.86      9.65      -0.58      1.46
   1611.0     299.83      9.54      -0.62      1.45
   1618.0     299.80      9.51      -0.68      1.43
   1624.0     299.86      9.48      -0.75      1.38
   1631.0     299.82      9.48      -0.83      1.32
   1637.0     299.88      9.48      -0.92      1.26
   1643.0     299.84      9.47      -1.01      1.18
   1650.0     299.91      9.45      -1.11      1.10
   1656.0     299.97      9.44      -1.20      1.02
   1662.0     300.04      9.43      -1.28      0.93
   1668.0     300.10      9.40      -1.36      0.84
   1675.0     300.06      9.33      -1.43      0.75
   1681.0     300.12      9.23      -1.49      0.67
   1688.0     300.20      9.14      -1.53      0.58
   1694.0     300.26      9.04      -1.57      0.48
   1700.0     300.22      8.96      -1.60      0.39
   1706.0     300.28      8.93      -1.61      0.29
   1712.0     300.34      8.89      -1.62      0.20
   1719.0     300.30      8.87      -1.62      0.10
   1725.0     300.36      8.85      -1.62      0.00
   1731.0     300.32      8.82      -1.62      -0.10
   1737.0     300.39      8.78      -1.61      -0.20
   1743.0     300.34      8.75      -1.59      -0.29
   1750.0     300.41      8.70      -1.58      -0.39
   1756.0     300.47      8.65      -1.56      -0.48
   1762.0     300.53      8.60      -1.54      -0.57
   1768.0     300.49      8.55      -1.51      -0.65
   1774.0     300.55      8.48      -1.48      -0.73
   1780.0     300.61      8.43      -1.44      -0.80
   1787.0     300.67      8.42      -1.40      -0.87
   1793.0     300.64      8.42      -1.35      -0.93
   1799.0     300.70      8.42      -1.30      -0.98
   1806.0     300.67      8.42      -1.25      -1.03
   1813.0     300.63      8.42      -1.21      -1.07
   1819.0     300.69      8.43      -1.16      -1.11
   1825.0     300.65      8.43      -1.13      -1.15
   1831.0     300.72      8.44      -1.10      -1.18
   1838.0     300.68      8.45      -1.08      -1.21
   1844.0     300.74      8.48      -1.06      -1.23
   1851.0     300.81      8.49      -1.06      -1.26
   1857.0     300.77      8.49      -1.07      -1.28
   1864.0     300.73      8.49      -1.08      -1.31
   1870.0     300.79      8.49      -1.10      -1.33
   1876.0     300.86      8.49      -1.13      -1.36
   1882.0     300.81      8.49      -1.15      -1.40
   1888.0     300.77      8.48      -1.18      -1.44
   1894.0     300.84      8.48      -1.21      -1.49
   1901.0     300.90      8.47      -1.25      -1.55
   1907.0     300.86      8.46      -1.28      -1.61
   1914.0     300.93      8.42      -1.32      -1.68
   1920.0     300.99      8.41      -1.37      -1.76
   1926.0     300.94      8.39      -1.42      -1.84
   1932.0     301.02      8.38      -1.47      -1.92
   1939.0     300.98      8.37      -1.54      -2.01
   1946.0     301.05      8.32      -1.61      -2.09
   1952.0     301.11      8.24      -1.70      -2.17
   1959.0     301.19      8.17      -1.79      -2.25
   1965.0     301.25      8.08      -1.89      -2.31
   1972.0     301.31      7.99      -2.00      -2.38
   1978.0     301.48      7.90      -2.12      -2.43
   1984.0     301.55      7.81      -2.24      -2.47
   1990.0     301.61      7.77      -2.36      -2.51
   1996.0     301.68      7.73      -2.48      -2.55
   2003.0     301.74      7.65      -2.60      -2.58
   2009.0     301.81      7.51      -2.72      -2.61
   2016.0     301.98      7.30      -2.83      -2.64
   2022.0     302.15      7.13      -2.93      -2.67
   2028.0     302.21      6.99      -3.03      -2.70
   2034.0     302.38      6.80      -3.12      -2.74
   2040.0     302.56      6.60      -3.20      -2.78
   2047.0     302.62      6.38      -3.27      -2.83
   2052.0     302.79      6.19      -3.33      -2.88
   2058.0     302.85      5.98      -3.38      -2.93
   2065.0     302.91      5.73      -3.43      -2.98
   2071.0     302.99      5.53      -3.46      -3.03
   2078.0     303.16      5.35      -3.50      -3.08
   2084.0     303.23      5.19      -3.52      -3.13
   2091.0     303.29      4.97      -3.54      -3.17
   2097.0     303.46      4.63      -3.56      -3.22
   2103.0     303.53      4.42      -3.56      -3.26
   2110.0     303.60      4.28      -3.56      -3.29
   2116.0     303.66      4.16      -3.56      -3.33
   2122.0     303.73      4.09      -3.55      -3.37
   2128.0     303.79      4.08      -3.52      -3.40
   2134.0     303.86      4.09      -3.49      -3.44
   2141.0     303.82      4.09      -3.46      -3.47
   2147.0     303.88      4.09      -3.41      -3.51
   2153.0     303.84      4.08      -3.36      -3.55
   2159.0     303.91      4.09      -3.30      -3.59
   2166.0     303.87      4.09      -3.24      -3.63
   2172.0     303.93      4.10      -3.18      -3.67
   2179.0     303.89      4.10      -3.12      -3.72
   2185.0     303.96      4.11      -3.06      -3.76
   2192.0     303.92      4.13      -3.00      -3.81
   2198.0     303.99      4.14      -2.95      -3.86
   2204.0     304.05      4.14      -2.90      -3.91
   2210.0     304.01      4.14      -2.85      -3.97
   2216.0     303.96      4.14      -2.81      -4.03
   2222.0     304.03      4.14      -2.77      -4.10
   2228.0     303.97      4.14      -2.73      -4.18
   2234.0     304.04      4.14      -2.70      -4.25
   2241.0     304.00      4.14      -2.66      -4.33
   2247.0     304.07      4.14      -2.63      -4.42
   2253.0     304.03      4.15      -2.60      -4.50
   2260.0     304.09      4.16      -2.57      -4.58
   2266.0     304.05      4.17      -2.54      -4.65
   2272.0     304.12      4.19      -2.50      -4.72
   2279.0     304.08      4.21      -2.47      -4.78
   2286.0     304.04      4.24      -2.43      -4.83
   2292.0     304.11      4.26      -2.39      -4.88
   2298.0     304.07      4.27      -2.35      -4.91
   2304.0     304.13      4.29      -2.30      -4.93
   2310.0     304.08      4.31      -2.24      -4.94
   2317.0     304.15      4.30      -2.18      -4.93
   2323.0     304.11      4.29      -2.11      -4.92
   2330.0     304.18      4.29      -2.03      -4.91
   2336.0     304.25      4.32      -1.95      -4.88
   2342.0     304.21      4.40      -1.85      -4.84
   2349.0     304.27      4.49      -1.75      -4.79
   2355.0     304.34      4.55      -1.64      -4.74
   2361.0     304.41      4.57      -1.53      -4.67
   2368.0     304.37      4.60      -1.41      -4.60
   2374.0     304.44      4.62      -1.29      -4.53
   2381.0     304.51      4.63      -1.16      -4.45
   2387.0     304.47      4.64      -1.04      -4.37
   2395.0     304.54      4.66      -0.91      -4.29
   2403.0     304.73      4.70      -0.78      -4.22
   2410.0     304.81      4.73      -0.66      -4.15
   2417.0     304.88      4.73      -0.54      -4.10
   2424.0     304.96      4.73      -0.43      -4.06
   2429.0     305.02      4.72      -0.32      -4.03
   2435.0     304.97      4.72      -0.22      -4.02
   2441.0     305.04      4.71      -0.12      -4.02
   2447.0     305.09      4.71      -0.04      -4.03
   2453.0     305.16      4.70      0.04      -4.06
   2460.0     305.23      4.68      0.12      -4.10
   2466.0     305.29      4.67      0.18      -4.15
   2472.0     305.25      4.66      0.24      -4.20
   2479.0     305.32      4.65      0.29      -4.26
   2485.0     305.28      4.65      0.34      -4.33
   2492.0     305.35      4.65      0.38      -4.40
   2498.0     305.30      4.64      0.42      -4.47
   2504.0     305.37      4.65      0.46      -4.54
   2510.0     305.42      4.65      0.50      -4.62
   2516.0     305.39      4.66      0.54      -4.69
   2522.0     305.45      4.66      0.58      -4.77
   2528.0     305.51      4.67      0.63      -4.84
   2534.0     305.58      4.69      0.68      -4.92
   2541.0     305.54      4.70      0.74      -4.99
   2547.0     305.60      4.69      0.81      -5.07
   2553.0     305.67      4.67      0.88      -5.14
   2560.0     305.74      4.65      0.96      -5.20
   2566.0     305.70      4.64      1.05      -5.26
   2572.0     305.76      4.64      1.14      -5.31
   2578.0     305.83      4.63      1.23      -5.36
   2584.0     305.78      4.63      1.33      -5.40
   2591.0     305.85      4.62      1.43      -5.44
   2597.0     305.91      4.62      1.52      -5.47
   2603.0     305.87      4.60      1.61      -5.49
   2609.0     305.94      4.57      1.69      -5.52
   2615.0     306.11      4.56      1.77      -5.53
   2621.0     306.07      4.56      1.85      -5.55
   2627.0     306.13      4.55      1.92      -5.56
   2633.0     306.19      4.55      1.99      -5.57
   2640.0     306.15      4.52      2.06      -5.57
   2646.0     306.22      4.48      2.13      -5.57
   2652.0     306.17      4.47      2.20      -5.57
   2658.0     306.24      4.47      2.27      -5.56
   2665.0     306.31      4.48      2.36      -5.54
   2671.0     306.27      4.48      2.44      -5.52
   2677.0     306.33      4.49      2.53      -5.49
   2683.0     306.29      4.50      2.63      -5.46
   2690.0     306.35      4.50      2.73      -5.42
   2696.0     306.43      4.49      2.84      -5.38
   2702.0     306.38      4.49      2.95      -5.33
   2708.0     306.45      4.49      3.06      -5.27
   2714.0     306.51      4.48      3.16      -5.22
   2720.0     306.47      4.47      3.27      -5.16
   2727.0     306.53      4.46      3.38      -5.10
   2733.0     306.60      4.45      3.49      -5.04
   2739.0     306.67      4.45      3.60      -4.98
   2745.0     306.62      4.44      3.71      -4.91
   2751.0     306.68      4.43      3.82      -4.85
   2758.0     306.75      4.42      3.95      -4.78
   2764.0     306.70      4.41      4.08      -4.71
   2770.0     306.78      4.41      4.22      -4.64
   2776.0     306.84      4.40      4.37      -4.57
   2782.0     306.80      4.39      4.54      -4.49
   2789.0     306.87      4.38      4.72      -4.41
   2795.0     306.93      4.37      4.91      -4.33
   2801.0     307.00      4.36      5.11      -4.25
   2807.0     307.06      4.35      5.33      -4.17
   2814.0     307.03      4.33      5.55      -4.09
   2820.0     307.09      4.33      5.77      -4.02
   2826.0     307.16      4.33      5.99      -3.95
   2833.0     307.23      4.33      6.22      -3.90
   2841.0     307.32      4.32      6.44      -3.85
   2848.0     307.39      4.31      6.66      -3.81
   2854.0     307.45      4.31      6.88      -3.78
   2861.0     307.52      4.31      7.08      -3.75
   2867.0     307.70      4.30      7.28      -3.74
   2873.0     307.66      4.29      7.47      -3.73
   2879.0     307.73      4.28      7.65      -3.72
   2886.0     307.90      4.27      7.83      -3.72
   2892.0     307.85      4.26      8.00      -3.72
   2898.0     307.92      4.26      8.16      -3.72
   2903.0     307.98      4.27      8.33      -3.71
   2910.0     308.05      4.27      8.49      -3.70
   2916.0     308.12      4.26      8.65      -3.68
   2923.0     308.18      4.25      8.81      -3.65
   2929.0     308.14      4.25      8.97      -3.60
   2936.0     308.22      4.22      9.14      -3.55
   2943.0     308.29      4.19      9.30      -3.49
   2949.0     308.37      4.13      9.46      -3.42
   2956.0     308.43      4.03      9.62      -3.34
   2962.0     308.50      3.88      9.77      -3.26
   2968.0     308.56      3.78      9.92      -3.17
   2974.0     308.53      3.75      10.07      -3.07
   2981.0     308.59      3.71      10.20      -2.98
   2987.0     308.66      3.65      10.33      -2.88
   2994.0     308.72      3.60      10.45      -2.79
   2999.0     308.79      3.60      10.56      -2.69
   3006.0     308.86      3.62      10.67      -2.60
   3012.0     308.92      3.66      10.78      -2.50
   3018.0     309.00      3.71      10.88      -2.41
   3025.0     309.06      3.78      10.98      -2.31
   3032.0     309.14      3.82      11.08      -2.22
   3038.0     309.10      3.80      11.18      -2.13
   3045.0     309.16      3.79      11.27      -2.05
   3051.0     309.13      3.77      11.37      -1.97
   3058.0     309.20      3.74      11.46      -1.89
   3064.0     309.15      3.71      11.54      -1.83
   3071.0     309.23      3.69      11.62      -1.78
   3077.0     309.18      3.66      11.68      -1.75
   3083.0     309.24      3.63      11.73      -1.73
   3089.0     309.31      3.62      11.76      -1.73
   3095.0     309.27      3.60      11.78      -1.75
   3102.0     309.33      3.59      11.79      -1.78
   3108.0     309.41      3.59      11.77      -1.83
   3114.0     309.47      3.60      11.74      -1.88
   3121.0     309.55      3.64      11.71      -1.95
   3127.0     309.50      3.72      11.66      -2.01
   3133.0     309.56      3.77      11.60      -2.08
   3139.0     309.63      3.82      11.55      -2.14
   3146.0     309.59      3.86      11.49      -2.20
   3152.0     309.67      3.90      11.43      -2.25
   3159.0     309.73      3.92      11.38      -2.29
   3165.0     309.68      3.93      11.33      -2.33
   3171.0     309.76      3.95      11.28      -2.36
   3178.0     309.71      3.97      11.24      -2.38
   3184.0     309.78      3.99      11.21      -2.40
   3190.0     309.74      3.99      11.18      -2.42
   3197.0     309.70      4.00      11.15      -2.43
   3203.0     309.77      4.01      11.12      -2.45
   3210.0     309.72      4.01      11.10      -2.46
   3216.0     309.80      4.01      11.07      -2.47
   3222.0     309.75      4.01      11.04      -2.49
   3228.0     309.82      4.02      11.01      -2.50
   3235.0     309.78      4.02      10.99      -2.52
   3242.0     309.74      4.02      10.95      -2.54
   3248.0     309.81      4.02      10.92      -2.57
   3255.0     309.77      4.03      10.88      -2.59
   3261.0     309.84      4.04      10.85      -2.62
   3267.0     309.80      4.04      10.81      -2.66
   3274.0     309.86      4.04      10.78      -2.69
   3280.0     309.83      4.05      10.75      -2.73
   3287.0     309.89      4.05      10.72      -2.77
   3293.0     309.86      4.06      10.69      -2.81
   3300.0     309.81      4.06      10.68      -2.85
   3306.0     309.89      4.06      10.67      -2.89
   3312.0     309.84      4.06      10.66      -2.93
   3318.0     309.91      4.06      10.67      -2.96
   3325.0     309.86      4.06      10.69      -2.99
   3331.0     309.94      4.06      10.73      -3.02
   3337.0     309.89      4.04      10.78      -3.03
   3344.0     309.96      4.03      10.84      -3.05
   3350.0     309.91      4.03      10.91      -3.05
   3356.0     309.86      4.05      11.00      -3.06
   3362.0     309.94      4.05      11.10      -3.06
   3368.0     309.89      4.06      11.22      -3.06
   3374.0     309.96      4.07      11.34      -3.06
   3380.0     310.02      4.08      11.47      -3.05
   3386.0     309.98      4.11      11.60      -3.05
   3393.0     310.04      4.14      11.73      -3.04
   3399.0     310.11      4.13      11.85      -3.04
   3405.0     310.17      4.12      11.97      -3.03
   3411.0     310.24      4.11      12.08      -3.02
   3417.0     310.42      4.05      12.18      -3.01
   3423.0     310.48      3.96      12.27      -3.00
   3430.0     310.56      3.89      12.35      -2.98
   3436.0     310.63      3.85      12.41      -2.96
   3443.0     310.71      3.81      12.47      -2.94
   3449.0     310.66      3.77      12.51      -2.92
   3456.0     310.73      3.76      12.55      -2.90
   3462.0     310.79      3.77      12.59      -2.88
   3468.0     310.87      3.78      12.62      -2.87
   3475.0     310.82      3.78      12.65      -2.85
   3481.0     310.89      3.77      12.69      -2.85
   3487.0     310.86      3.75      12.73      -2.85
   3494.0     310.92      3.72      12.76      -2.85
   3500.0     310.99      3.70      12.80      -2.86
   3506.0     310.95      3.69      12.85      -2.88
   3513.0     311.01      3.67      12.89      -2.90
   3519.0     310.97      3.65      12.94      -2.93
   3525.0     311.05      3.64      12.99      -2.96
   3531.0     311.00      3.64      13.04      -2.99
   3538.0     311.07      3.65      13.08      -3.02
   3544.0     311.02      3.66      13.13      -3.06
   3550.0     311.09      3.67      13.17      -3.09
   3557.0     311.06      3.68      13.22      -3.12
   3564.0     311.14      3.69      13.26      -3.15
   3570.0     311.09      3.69      13.31      -3.17
   3577.0     311.16      3.69      13.35      -3.18
   3584.0     311.13      3.70      13.40      -3.17
   3590.0     311.19      3.71      13.44      -3.16
   3596.0     311.15      3.71      13.48      -3.13
   3603.0     311.10      3.72      13.52      -3.08
   3609.0     311.17      3.73      13.55      -3.03
   3615.0     311.12      3.74      13.57      -2.96
   3621.0     311.19      3.75      13.59      -2.87
   3628.0     311.26      3.75      13.61      -2.78
   3634.0     311.34      3.75      13.61      -2.68
   3640.0     311.30      3.74      13.61      -2.57
   3646.0     311.36      3.72      13.60      -2.46
   3653.0     311.43      3.71      13.59      -2.34
   3661.0     311.40      3.71      13.57      -2.22
   3669.0     311.49      3.70      13.55      -2.09
   3677.0     311.46      3.69      13.53      -1.95
   3684.0     311.55      3.66      13.51      -1.80
   3692.0     311.51      3.63      13.50      -1.64
   3700.0     311.61      3.59      13.49      -1.46
   3710.0     311.61      3.57      13.48      -1.27
   3720.0     311.62      3.55      13.48      -1.07
   3730.0     311.60      3.54      13.49      -0.86
   3739.0     311.69      3.50      13.51      -0.64
   3748.0     311.80      3.46      13.53      -0.41
   3758.0     311.80      3.41      13.56      -0.19
   3770.0     311.81      3.37      13.59      0.03
   3779.0     311.92      3.36      13.63      0.23
   3787.0     311.89      3.36      13.68      0.42
   3793.0     311.96      3.34      13.73      0.59
   3799.0     311.92      3.25      13.78      0.73
   3806.0     311.98      3.16      13.84      0.86
   3813.0     312.05      3.13      13.90      0.95
   3819.0     312.14      3.04      13.96      1.03
   3826.0     312.09      2.95      14.02      1.09
   3832.0     312.16      2.92      14.09      1.14
   3839.0     312.12      2.91      14.15      1.17
   3845.0     312.20      2.88      14.21      1.20
   3852.0     312.16      2.86      14.27      1.21
   3858.0     312.23      2.86      14.33      1.22
   3865.0     312.30      2.85      14.38      1.23
   3871.0     312.25      2.84      14.42      1.23
   3877.0     312.21      2.82      14.47      1.23
   3883.0     312.28      2.81      14.51      1.23
   3889.0     312.22      2.80      14.54      1.22
   3895.0     312.29      2.78      14.57      1.21
   3902.0     312.26      2.73      14.59      1.20
   3909.0     312.33      2.67      14.61      1.19
   3915.0     312.29      2.64      14.63      1.19
   3921.0     312.36      2.65      14.65      1.18
   3928.0     312.32      2.66      14.66      1.19
   3934.0     312.27      2.66      14.67      1.21
   3940.0     312.34      2.65      14.69      1.24
   3947.0     312.30      2.62      14.71      1.29
   3954.0     312.38      2.60      14.73      1.36
   3961.0     312.34      2.57      14.75      1.44
   3967.0     312.30      2.55      14.77      1.54
   3974.0     312.37      2.51      14.79      1.66
   3981.0     312.34      2.46      14.81      1.78
   3988.0     312.42      2.45      14.83      1.91
   3996.0     312.39      2.44      14.84      2.05
   4005.0     312.38      2.42      14.85      2.18
   4015.0     312.49      2.30      14.86      2.30
   4024.0     312.59      2.18      14.88      2.41