Description of namelist variables

---------------------------------
 
For WRF-NMM users, please see Chapter 5 of the WRF-NMM User's Guide for 
information on NMM specific settings (http://www.dtcenter.org/wrf-nmm/users)


 Note: variables followed by (max_dom) indicate that this variable needs to
       be defined for the nests when max_dom > 1.

 &time_control
 run_days                            = 0,	! run time in days
 run_hours                           = 0,	! run time in hours
                                                  Note: if it is more than 1 day, one may use both run_days and run_hours
                                                  or just run_hours. e.g. if the total run length is 36 hrs, you may
                                                  set run_days = 1, and run_hours = 12, or run_days = 0, and run_hours = 36
 run_minutes                         = 0,	! run time in minutes
 run_seconds                         = 0,	! run time in seconds
 start_year (max_dom)                = 2001,	! four digit year of starting time
 start_month (max_dom)               = 06,	! two digit month of starting time
 start_day (max_dom)                 = 11,	! two digit day of starting time
 start_hour (max_dom)                = 12,	! two digit hour of starting time
 start_minute (max_dom)              = 00,	! two digit minute of starting time
 start_second (max_dom)              = 00,	! two digit second of starting time
                                                  Note: the start time is used to name the first wrfout file.
                                                  It also controls the start time for nest domains, and the time to restart
 tstart (max_dom)                    = 00,	! FOR NMM: starting hour of the forecast
 end_year (max_dom)                  = 2001,	! four digit year of ending time
 end_month (max_dom)                 = 06,	! two digit month of ending time
 end_day (max_dom)                   = 12,	! two digit day of ending time
 end_hour (max_dom)                  = 12,	! two digit hour of ending time
 end_minute (max_dom)                = 00,	! two digit minute of ending time
 end_second (max_dom)                = 00,	! two digit second of ending time
                                                  It also controls when the nest domain integrations end
                                                  All start and end times are used by real.exe.

                                                  Note that one may use either run_days/run_hours etc. or 
                                                  end_year/month/day/hour etc. to control the length of 
                                                  model integration. But run_days/run_hours
                                                  takes precedence over the end times. 
                                                  Program real.exe uses start and end times only.

 interval_seconds                    = 10800,	! time interval between incoming real data, which will be the interval
                                                  between the lateral boundary condition file (in seconds)
 input_from_file (max_dom)           = T,       ! whether nested run will have input files for domains other than 1
 fine_input_stream (max_dom)         = 0,       ! field selection from nest input for its initialization
                                                  0: all fields are used! 2: only static and time-varying, masked land 
                                                  surface fields are used. In V3.2, this requires the use of 
                                                  io_form_auxinput2
 history_interval (max_dom)          = 60,  	! history output file interval in minutes
 frames_per_outfile (max_dom)        = 1, 	! number of output times per history output file, 
                                                  used to split output into multiple files 
                                                  into smaller pieces
 restart                             = F,	! whether this run is a restart run
 cycling                             = F,       ! whether this run is a cycling run, if so, initializes look-up table for Thompson schemes only
 restart_interval		     = 1440,	! restart output file interval in minutes
 reset_simulation_start              = F,       ! whether to overwrite simulation_start_date with forecast start time
 io_form_history                     = 2,       ! 2 = netCDF 
 io_form_restart                     = 2,       ! 2 = netCDF 
 io_form_input                       = 2,       ! 2 = netCDF
 io_form_boundary                    = 2,       ! netCDF format
                                     = 4,       ! PHD5 format
                                     = 5,       ! GRIB1 format
                                     = 10,      ! GRIB2 format
                                     = 11,      ! pnetCDF format
 ncd_nofill                          = .true.,  ! only a single write, not the write/read/write sequence, new in 3.6
 frames_per_emissfile                = 12,      ! number of times in each chemistry emission file.
 io_style_emiss                      = 1,       ! style to use for the chemistry emission files.
                                                ! 0 = Do not read emissions from files.
                                                ! 1 = Cycle between two 12 hour files (set frames_per_emissfile=12)
                                                ! 2 = Dated files with length set by frames_per_emissfile
 debug_level                         = 0, 	! 50,100,200,300 values give increasing prints
 diag_print                          = 0, 	! print out time series of model diagnostics
                                                  0 = no print
                                                  1 = domain averaged 3-hourly hydrostatic surface pressure tendency 
                                                      (Dpsfc/Dt), and dry-hydrostatic column pressure tendency (Dmu/Dt)
                                                      will appear in stdout file
                                                  2 = in addition to those above, domain averaged rainfall, 
                                                      surface evaporation, and sensible and latent heat fluxes will be output
 all_ic_times                        = .false., ! whether to write out wrfinput for all processing times
 adjust_output_times                 = .false., ! adjust output times to the nearest hour
 override_restart_timers             = .false., ! whether to change the alarms from what is previously set
 write_hist_at_0h_rst                = .false., ! whether to output history file at the start of restart run
 output_ready_flag		     = .true.,  ! asks the model to write-out an empty file with the name 'wrfoutReady_d<domain>_<date>.  
                                                  Useful in production runs so that post-processing code can check on the 
                                                  completeness of this file
 force_use_old_data                  = .false., ! if set to .true., allow WRF Version 3 input data
                                                  =.false., stop when WRF model detects Version 3 input data

To choose between SI and WPS input to real for EM core:
 auxinput1_inname                    = "met_em.d<domain>.<date>"             ! Input to real from WPS (default since 3.0)
                                     = "wrf_real_input_em.d<domain>.<date>"  ! Input to real from SI

To choose between SI and WPS input to real for NMM core:
 auxinput1_inname                    = "met_nm.d<domain>.<date>"             ! Input to real from WPS
                                     = "wrf_real_input_nm.d<domain>.<date>"  ! Input to real from SI

Other output options:

 auxhist2_outname                    = "rainfall" ! file name for extra output! if not specified,
                                                    auxhist2_d<domain>_<date> will be used
                                                    also note that to write variables in output other
                                                    than the history file requires Registry.EM file change
 auxhist2_interval (max_dom)         = 10,      ! interval in minutes
 io_form_auxhist2                    = 2,       ! output in netCDF
 frames_per_auxhist2                 = 1000,    ! number of output times in this file

For SST updating (used only with sst_update=1):
 
 auxinput4_inname                    = "wrflowinp_d<domain>" 
 auxinput4_interval                  = 360      ! minutes generally matches time given by interval_seconds
 io_form_auxinput4                   = 2        ! IO format, required in V3.2

 nwp_diagnostics                     = 0        ! set to = 1 to add 7 history-interval max diagnostic fields

For additional regional climate surface fields

 output_diagnostics                  = 0        ! set to = 1 to add 36 surface diagnostic arrays (max/min/mean/std)
 auxhist3_outname                    = 'wrfxtrm_d<domain>_<date>' ! file name for added diagnostics
 io_form_auxhist3                    = 2        ! netcdf
 auxhist3_interval                   = 1440     ! minutes between outputs (1440 gives daily max/min)
 frames_per_auxhist3                 = 1        ! output times per file
                                                  Note: do restart only at multiple of auxhist3_intervals

For observation nudging:
 auxinput11_interval                 = 10       ! interval in minutes for observation data. It should be 
                                                  set as or more frequently as obs_ionf (with unit of 
                                                  coarse domain time step).
 auxinput11_end_h                    = 6        ! end of observation time in hours.

Options for run-time IO:

 iofields_filename (max_dom)         = "my_iofields_list.txt",
                                       (example: +:h:21:rainc, rainnc, rthcuten)
 ignore_iofields_warning             = .true.,  ! what to do when encountering an error in the user-specified files
                                       .false., ! abort when encountering an error in iofields_filename file

Additional settings when running WRFVAR:

 write_input                         = t,       ! write input-formatted data as output
 inputout_interval (max_dom)         = 180,     ! interval in minutes when writing input-formatted data 
 input_outname                       = 'wrfinput_d<domain>_<date>' ! you may change the output file name
 inputout_begin_y (max_dom)          = 0
 inputout_begin_mo                   = 0
 inputout_begin_d (max_dom)          = 0
 inputout_begin_h (max_dom)          = 3
 inputout_begin_m (max_dom)          = 0
 inputout_begin_s (max_dom)          = 0
 inputout_end_y (max_dom)            = 0
 inputout_end_mo                     = 0
 inputout_end_d (max_dom)            = 0
 inputout_end_h (max_dom)            = 12
 inputout_end_m (max_dom)            = 0
 inputout_end_s (max_dom)            = 0        ! the above shows that the input-formatted data are output
                                                  starting from hour 3 to hour 12 in 180 min interval.

For automatic moving nests: requires special input data, and environment variable TERRAIN_AND_LANDUSE set at compile time
                                     (This option will overwrite input_from_file for nest domains)
 input_from_hires (max_dom)          = .true., 
 rsmas_data_path                     = "path-to-terrain-and-landuse-dataset"

 &domains
 time_step                           = 60,	! time step for integration in integer seconds
                                                  recommend 6*dx (in km) for typical real-data cases
 time_step_fract_num                 = 0,	! numerator for fractional time step 
 time_step_fract_den                 = 1,	! denominator for fractional time step 
                                                  Example, if you want to use 60.3 sec as your time step,
                                                  set time_step = 60, time_step_fract_num = 3, and 
                                                  time_step_fract_den = 10
 time_step_dfi                       = 60,	! time step for DFI, may be different from regular time_step
 max_dom                             = 1,	! number of domains - set it to > 1 if it is a nested run
 s_we (max_dom)                      = 1,	! start index in x (west-east) direction (leave as is)
 e_we (max_dom)                      = 91,	! end index in x (west-east) direction (staggered dimension)
 s_sn (max_dom)                      = 1,	! start index in y (south-north) direction (leave as is)
 e_sn (max_dom)                      = 82,	! end index in y (south-north) direction (staggered dimension)
 s_vert (max_dom)                    = 1,	! start index in z (vertical) direction (leave as is)
 e_vert (max_dom)                    = 30,	! end index in z (vertical) direction (staggered dimension)
                                                  Note: this refers to full levels including surface and top
                                                  vertical dimensions need to be the same for all nests
                                                  Note: most variables are unstaggered (= staggered dim - 1)
 dx (max_dom)                        = 10000,	! grid length in x direction; ARW: unit in meters, NMM: unit in degrees (e.g. 0.667)
 dy (max_dom)                        = 10000,	! grid length in y direction; ARW: unit in meters, NMM: unit in degrees (e.g. 0.0658) 
 ztop (max_dom)                      = 19000.	! used in mass model for idealized cases
 grid_id (max_dom)                   = 1,	! domain identifier
 parent_id (max_dom)                 = 0,       ! id of the parent domain
 i_parent_start (max_dom)            = 0,       ! starting LLC I-indices from the parent domain
 j_parent_start (max_dom)            = 0,       ! starting LLC J-indices from the parent domain
 parent_grid_ratio (max_dom)         = 1,       ! parent-to-nest domain grid size ratio: for real-data cases
                                                  the ratio has to be odd! for idealized cases,
                                                  the ratio can be even if feedback is set to 0. (NMM: must be 3)
 parent_time_step_ratio (max_dom)    = 1,       ! parent-to-nest time step ratio! it can be different
                                                  from the parent_grid_ratio (NMM: must be 3)
 feedback                            = 1,       ! feedback from nest to its parent domain; 0 = no feedback
 smooth_option                       = 2        ! smoothing option for parent domain, used only with feedback
                                                  option on. 0: no smoothing; 1: 1-2-1 smoothing; 2: smoothing-desmoothing (default)

Namelist variables specifically for the WPS input for real:

 num_metgrid_soil_levels             = 4        ! number of vertical soil levels or layers input
                                                  from WPS metgrid program
 num_metgrid_levels                  = 27       ! number of vertical levels of 3d meteorological fields coming 
                                                  from WPS metgrid program
 interp_type                         = 2        ! vertical interpolation
                                                  1 = linear in pressure
                                                  2 = linear in log(pressure)
 extrap_type                         = 2        ! vertical extrapolation of non-temperature fields
                                                  1 = extrapolate using the two lowest levels
                                                  2 = use lowest level as constant below ground
 t_extrap_type                       = 2        ! vertical extrapolation for potential temperature
                                                  1 = isothermal
                                                  2 = -6.5 K/km lapse rate for temperature
                                                  3 = constant theta
 use_levels_below_ground             = .true.   ! in vertical interpolation, use levels below input surface level
                                                  T = use input isobaric levels below input surface
                                                  F = extrapolate when WRF location is below input surface value
 use_surface                         = .true.   ! use the input surface level data in the vertical interp and extrap
                                                  T = use the input surface data
                                                  F = do not use the input surface data
 lagrange_order                      = 2        ! vertical interpolation order
                                                  1 = linear
                                                  2 = quadratic
                                                  9 = cubic spline
 zap_close_levels                    = 500      ! ignore isobaric level above surface if delta p (Pa) < zap_close_levels
 lowest_lev_from_sfc                 = .false.  ! place the surface value into the lowest eta location
                                                ! T = use surface value as lowest eta (u,v,t,q)
                                                ! F = use traditional interpolation
 force_sfc_in_vinterp                = 1        ! use the surface level as the lower boundary when interpolating
                                                  through this many eta levels
                                                  0 = perform traditional trapping interpolation
                                                  n = first n eta levels directly use surface level
 maxw_horiz_pres_diff                = 5000     ! Pressure threshold (Pa).  For using the level of max winds, when the
                                                  pressure difference between neighboring values exceeds this maximum,
                                                  the variable is NOT inserted into the column for vertical interpolation.
                                                  ARW real only.
 trop_horiz_pres_diff                = 5000     ! Pressure threshold (Pa).  For using the tropopause level, when the
                                                  pressure difference between neighboring values exceeds this maximum,
                                                  the variable is NOT inserted into the column for vertical interpolation.
                                                  ARW real only.
 maxw_above_this_level               = 30000    ! Minimum height (actually it is pressure in Pa) to allow using the 
                                                  level of max wind information in real.  With a value of 300 hPa, then
                                                  a max wind value at 500 hPa will be ignored.
                                                  ARW real only.
 use_maxw_level                                   0=do not use max wind speed level in vertical interpolation inside
                                                  of the ARW real program, 1 = use level
 use_trop_level                                   as above, with tropopause level data
 sfcp_to_sfcp                        = .false.  ! Optional method to compute model's surface pressure when incoming
                                                  data only has surface pressure and terrain, but not SLP
 smooth_cg_topo	                     = .false.  ! Smooth the outer rows and columns of domain 1's topography w.r.t.
                                                  the input data
 use_tavg_for_tsk                    = .false.  ! whether to use diurnally averaged surface temp as skin temp. The 
                                                  diurnally averaged surface temp can be computed using WPS utility
                                                  avg_tsfc.exe. May use this option when SKINTEMP is not present.
 aggregate_lu                        = .false.  ! whether to aggregate the grass, shrubs, trees in dominant landuse;
                                                  default is false.
 rh2qv_wrt_liquid                    = .true.,  ! whether to compute RH with respect to water (true) or ice (false)
 rh2qv_method                        = 1,       ! which method to use to computer mixing ratio from RH:
                                                  default is option 1, the old MM5 method; option 2 uses a WMO 
                                                  recommended method (WMO-No. 49, corrigendum, August 2000) - 
                                                  there is a difference between the two methods though small
 interp_theta                        = .false.  ! If set to .false., it will vertically interpolate temperature 
                                                  instead of potential temperature, which may reduce bias when 
                                                  compared with input data
 hypsometric_opt                     = 2,       ! = 1: default method
                                                  = 2: it uses an alternative way (less biased 
                                                  when compared against input data) to compute height in program 
                                                  real and pressure in model (ARW only). 
 p_top_requested                     = 5000     ! p_top (Pa) to use in the model
 ptsgm                               = 42000.   ! FOR NMM:  defines the pressure interface dividing
                                                            the terrain following portion of the hybrid vertical
                                                            coordinate (p > ptsgm) and the purely
                                                            isobaric portion of the vertical coordinate (p < ptsgm)
 vert_refine_fact                    = 1        ! vertical refinement factor for ndown, not used for concurrent vertical grid refinement
 vert_refine_method (max_dom)        = 0        ! vertical refinement method (new in 3.7)
                                                  0: no vertical refinement
                                                  1: integer vertical refinement
                                                  2: use specified or computed eta levels for vertical refinement

Users may explicitly define full eta levels.  Given are two distributions for 28 and 35 levels.  The number
of levels must agree with the number of eta surfaces allocated (e_vert).  Users may alternatively request 
only the number of levels (with e_vert), and the real program will compute values.  From V4.0 there are
two methods selected with auto_levels_opt = 1 (old) or 2 (new). The old computation assumes
a known first several layers, then generates equi-height spaced levels up to the top of the model.
The new method has surface and upper stretching factors (dz_stretch_s and dz_stretch_u) to stretch levels according to
log p up to where it reaches the maximum thickness (max_dz) and starting from thickness dzbot.
The stretching transitions from dzstretch_s to dzstretch_u by the time the thickness reaches max_dz/2.

 max_dz                              = 1000.     ! maximum level thickness allowed (m)
 auto_levels_opt                     = 1         ! old
                                     = 2         ! new default (also set dzstretch_s, dzstretch_u, dzbot, max_dz)
 dzbot                               = 50.       ! thickness of lowest layer (m) for auto_levels_opt=2
 dzstretch_s                         = 1.3       ! surface stretch factor for auto_levels_opt=2
 dzstretch_u                         = 1.1       ! upper stretch factor for auto_levels_opt=2

 eta_levels                          = 1.000, 0.990, 0.978, 0.964, 0.946,
                                       0.922, 0.894, 0.860, 0.817, 0.766,
                                       0.707, 0.644, 0.576, 0.507, 0.444,
                                       0.380, 0.324, 0.273, 0.228, 0.188,
                                       0.152, 0.121, 0.093, 0.069, 0.048,
                                       0.029, 0.014, 0.000,
 eta_levels                          = 1.000, 0.993, 0.983, 0.970, 0.954,
                                       0.934, 0.909, 0.880, 0.845, 0.807,
                                       0.765, 0.719, 0.672, 0.622, 0.571,
                                       0.520, 0.468, 0.420, 0.376, 0.335,
                                       0.298, 0.263, 0.231, 0.202, 0.175,
                                       0.150, 0.127, 0.106, 0.088, 0.070,
                                       0.055, 0.040, 0.026, 0.013, 0.000

                                     = 0,2,  ! this allows vertical nesting in the nest domain
                                               Note that with vertical nesting one can only use RRTM and RRTMG radiation physics

 An example to define vertical nested levels (in program real):
                                       
 e_vert                              = 35,    45,
 eta_levels(1:35)                    = 1., 0.993, 0.983, 0.97, 0.954, 0.934, 0.909, 0.88, 0.8406663, 0.8013327,
                                       0.761999, 0.7226653, 0.6525755, 0.5877361, 0.5278192, 0.472514,
                                       0.4215262, 0.3745775, 0.3314044, 0.2917579, 0.2554026, 0.2221162,
                                       0.1916888, 0.1639222, 0.1386297, 0.1156351, 0.09525016, 0.07733481,
                                       0.06158983, 0.04775231, 0.03559115, 0.02490328, 0.0155102, 0.007255059, 0.
 eta_levels(36:81)                   = 1.0000, 0.9946, 0.9875, 0.9789, 0.9685, 0.9562, 0.9413, 0.9238, 0.9037, 0.8813, 0.8514,
                                       0.8210, 0.7906, 0.7602, 0.7298, 0.6812, 0.6290, 0.5796, 0.5333, 0.4901, 0.4493, 0.4109,
                                       0.3746, 0.3412, 0.3098, 0.2802, 0.2524, 0.2267, 0.2028, 0.1803, 0.1593, 0.1398, 0.1219,
                                       0.1054, 0.0904, 0.0766, 0.0645, 0.0534, 0.0433, 0.0341, 0.0259, 0.0185, 0.0118, 0.0056, 0.

 ideal_init_method                   method to compute alb in idealized cases in start_em (new in 3.8)
                                     = 1, alb from phb (default); = 2, alb from t_init

Horizontal interpolation options, coarse grid to fine grid.  The default is to use
the Smolarkiewicz "SINT" method.  However, this is known to break with the 
implementation inside of WRF for large refinement ratios (such as 15:1).  For those
extreme (and quite rare occurrences), other schemes are available.  For options
1, 3, 4, and 12, the FG lateral boundaries use the same horizontal scheme for the
lateral BC computations.
 interp_method_type                  = 1 ! bi-linear interpolation
                                     = 2 ! SINT, (default)
                                     = 3 ! nearest neighbor - only to be used for 
                                           testing purposes
                                     = 4 ! overlapping quadratic
                                     =12 ! again for testing, uses SINT horizontal
                                           interpolation, and same scheme for 
                                           computation of FG lateral boundaries

Variables specifically for the 3d ocean initialization with a single profile. Set
the ocean physics option to #2.  Specify a number of levels.  For each of those levels,
provide a depth (m) below the surface.  At each depth provide a temperature (K) and
a salinity (ppt).  The default is not to use the 3d ocean.  Even when the 3d ocean is
activated, the user must specify a reasonable ocean.  Currently, this is the only way
available to run the 3d ocean option.

 &physics
 sf_ocean_physics                    = activate ocean model (0=no, 1=1d mixed layer; 2=3D PWP, no bathymetry)

 &domains
 ocean_levels                        = 30,
 ocean_z                             ; vertical profile of layer depths for ocean (in meters), e.g.:
                                     =       5.,       15.,       25.,       35.,       45.,       55.,
                                            65.,       75.,       85.,       95.,      105.,      115.,
                                           125.,      135.,      145.,      155.,      165.,      175.,
                                           185.,      195.,      210.,      230.,      250.,      270.,
                                           290.,      310.,      330.,      350.,      370.,      390.
 ocean_t                             ; vertical profile of ocean temps, e.g.:
                                     = 302.3493,  302.3493,  302.3493,  302.1055,  301.9763,  301.6818,
                                       301.2220,  300.7531,  300.1200,  299.4778,  298.7443,  297.9194,
                                       297.0883,  296.1443,  295.1941,  294.1979,  293.1558,  292.1136,
                                       291.0714,  290.0293,  288.7377,  287.1967,  285.6557,  284.8503,
                                       284.0450,  283.4316,  283.0102,  282.5888,  282.1674,  281.7461
 ocean_s                             ; vertical profile of salinity, e.g.:
                                     =  34.0127,   34.0127,   34.0127,   34.3217,   34.2624,   34.2632,
                                        34.3240,   34.3824,   34.3980,   34.4113,   34.4220,   34.4303,
                                        34.6173,   34.6409,   34.6535,   34.6550,   34.6565,   34.6527,
                                        34.6490,   34.6446,   34.6396,   34.6347,   34.6297,   34.6247,
                                        34.6490,   34.6446,   34.6396,   34.6347,   34.6297,   34.6247
