&time_control
run_hours=6,
start_year=2008,
start_month=02,
start_day=05,
start_hour=12,
end_year=2008,
end_month=02,
end_day=05,
end_hour=18,
interval_seconds=21600,
input_from_file=true,
history_interval=9999,
frames_per_outfile=1,
frames_per_auxhist2=60,
debug_level=0,
auxinput2_inname="../nl/auxhist2_d<domain>_<date>",
inputout_interval=60,
auxinput2_interval=6,
inputout_begin_h=0,
inputout_end_h=6,
io_form_auxhist2=2,
input_outname="tl_d<domain>_<date>",
write_input=true,
/
&domains
time_step=360,
e_we=90,
e_sn=60,
e_vert=41,
dx=60000,
dy=60000,
i_parent_start=0,
j_parent_start=0,
smooth_option=0,
nproc_x=0,
/
&physics
mp_physics=0,
ra_lw_physics=0,
ra_sw_physics=0,
radt=0,
sf_sfclay_physics=0,
sf_surface_physics=1,
bl_pbl_physics=0,
bldt=0,
cu_physics=0,
cudt=0,
isfflx=0,
icloud=0,
num_soil_layers=5,
mp_zero_out=2,
/
&dynamics
dyn_opt=202,
w_damping=0,
diff_opt=1,
km_opt=4,
dampcoef=0.2,
time_step_sound=4,
base_temp=290.0,
jcdfi_io=false,
jcdfi_tauc=6,
jcdfi_gama=5.0,
jcdfi_error_wind=3.0,
jcdfi_error_t=1.0,
jcdfi_error_mu=1000.,
/
&bdy_control
specified=true,
real_data_init_type=3,
/
&wrfvar
trace_memory=false,
/
&namelist_quilt
/
